
     RDKit          3D

 53 56  0  0  0  0  0  0  0  0999 V2000
   -3.1628    0.5773    2.1301 C   0  0  0  0  0  0  0  0  0  0  0  0
   -3.0290   -0.3772    0.9272 C   0  0  0  0  0  0  0  0  0  0  0  0
   -2.6023   -1.7456    1.5230 C   0  0  0  0  0  0  0  0  0  0  0  0
   -4.3380   -0.5421    0.1134 C   0  0  0  0  0  0  0  0  0  0  0  0
   -4.9470    0.8163   -0.2719 C   0  0  0  0  0  0  0  0  0  0  0  0
   -3.9872    1.6862   -1.0820 C   0  0  0  0  0  0  0  0  0  0  0  0
   -2.5161    1.5678   -0.6611 C   0  0  0  0  0  0  0  0  0  0  0  0
   -2.0823    0.1359   -0.2212 C   0  0  0  0  0  0  0  0  0  0  0  0
   -0.5941    0.0903    0.1918 C   0  0  0  0  0  0  0  0  0  0  0  0
    0.5846    0.6524   -1.0422 S   0  0  0  0  0  0  0  0  0  0  0  0
    0.4541   -0.1338   -2.2492 O   0  0  0  0  0  0  0  0  0  0  0  0
    0.5450    2.0992   -1.0785 O   0  0  0  0  0  0  0  0  0  0  0  0
    2.0609    0.2096   -0.3134 N   0  0  0  0  0  0  0  0  0  0  0  0
    2.4242   -1.2308   -0.4174 C   0  0  0  0  0  0  0  0  0  0  0  0
    3.5307   -1.5419    0.5904 C   0  0  0  0  0  0  0  0  0  0  0  0
    4.7101   -0.6171    0.4286 C   0  0  0  0  0  0  0  0  0  0  0  0
    5.9656   -0.9855    0.9306 C   0  0  0  0  0  0  0  0  0  0  0  0
    7.0546   -0.1236    0.8063 C   0  0  0  0  0  0  0  0  0  0  0  0
    6.8971    1.1142    0.1878 C   0  0  0  0  0  0  0  0  0  0  0  0
    5.6482    1.4952   -0.3030 C   0  0  0  0  0  0  0  0  0  0  0  0
    4.5419    0.6410   -0.1783 C   0  0  0  0  0  0  0  0  0  0  0  0
    3.2000    1.0750   -0.7358 C   0  0  0  0  0  0  0  0  0  0  0  0
   -2.4120   -0.8556   -1.3720 C   0  0  0  0  0  0  0  0  0  0  0  0
   -3.8721   -1.2863   -1.1532 C   0  0  0  0  0  0  0  0  0  0  0  0
   -3.4516    1.5953    1.8606 H   0  0  0  0  0  0  0  0  0  0  0  0
   -3.9211    0.2072    2.8302 H   0  0  0  0  0  0  0  0  0  0  0  0
   -2.2173    0.6519    2.6787 H   0  0  0  0  0  0  0  0  0  0  0  0
   -2.3848   -2.5028    0.7650 H   0  0  0  0  0  0  0  0  0  0  0  0
   -3.3957   -2.1488    2.1636 H   0  0  0  0  0  0  0  0  0  0  0  0
   -1.7059   -1.6455    2.1453 H   0  0  0  0  0  0  0  0  0  0  0  0
   -5.0890   -1.1282    0.6553 H   0  0  0  0  0  0  0  0  0  0  0  0
   -5.8623    0.6586   -0.8562 H   0  0  0  0  0  0  0  0  0  0  0  0
   -5.2639    1.3544    0.6284 H   0  0  0  0  0  0  0  0  0  0  0  0
   -4.0681    1.4003   -2.1390 H   0  0  0  0  0  0  0  0  0  0  0  0
   -4.3042    2.7347   -1.0380 H   0  0  0  0  0  0  0  0  0  0  0  0
   -1.9210    1.9021   -1.5178 H   0  0  0  0  0  0  0  0  0  0  0  0
   -2.3078    2.2843    0.1418 H   0  0  0  0  0  0  0  0  0  0  0  0
   -0.3114   -0.9369    0.4339 H   0  0  0  0  0  0  0  0  0  0  0  0
   -0.4212    0.7116    1.0772 H   0  0  0  0  0  0  0  0  0  0  0  0
    2.7599   -1.4569   -1.4375 H   0  0  0  0  0  0  0  0  0  0  0  0
    1.5637   -1.8686   -0.1968 H   0  0  0  0  0  0  0  0  0  0  0  0
    3.8481   -2.5828    0.4584 H   0  0  0  0  0  0  0  0  0  0  0  0
    3.1455   -1.4314    1.6116 H   0  0  0  0  0  0  0  0  0  0  0  0
    6.1017   -1.9467    1.4210 H   0  0  0  0  0  0  0  0  0  0  0  0
    8.0267   -0.4171    1.1941 H   0  0  0  0  0  0  0  0  0  0  0  0
    7.7469    1.7850    0.0902 H   0  0  0  0  0  0  0  0  0  0  0  0
    5.5399    2.4664   -0.7816 H   0  0  0  0  0  0  0  0  0  0  0  0
    3.2705    1.0804   -1.8305 H   0  0  0  0  0  0  0  0  0  0  0  0
    3.0084    2.0941   -0.3799 H   0  0  0  0  0  0  0  0  0  0  0  0
   -2.2828   -0.4030   -2.3614 H   0  0  0  0  0  0  0  0  0  0  0  0
   -1.7643   -1.7398   -1.3421 H   0  0  0  0  0  0  0  0  0  0  0  0
   -4.4963   -1.0681   -2.0263 H   0  0  0  0  0  0  0  0  0  0  0  0
   -3.9171   -2.3707   -0.9982 H   0  0  0  0  0  0  0  0  0  0  0  0
  1  2  1  0
  2  3  1  0
  2  4  1  0
  4  5  1  0
  5  6  1  0
  6  7  1  0
  7  8  1  0
  8  9  1  0
  9 10  1  0
 10 11  2  0
 10 12  2  0
 10 13  1  0
 13 14  1  0
 14 15  1  0
 15 16  1  0
 16 17  2  0
 17 18  1  0
 18 19  2  0
 19 20  1  0
 20 21  2  0
 21 22  1  0
  8 23  1  0
 23 24  1  0
  8  2  1  0
 22 13  1  0
 24  4  1  0
 21 16  1  0
  1 25  1  0
  1 26  1  0
  1 27  1  0
  3 28  1  0
  3 29  1  0
  3 30  1  0
  4 31  1  0
  5 32  1  0
  5 33  1  0
  6 34  1  0
  6 35  1  0
  7 36  1  0
  7 37  1  0
  9 38  1  0
  9 39  1  0
 14 40  1  0
 14 41  1  0
 15 42  1  0
 15 43  1  0
 17 44  1  0
 18 45  1  0
 19 46  1  0
 20 47  1  0
 22 48  1  0
 22 49  1  0
 23 50  1  0
 23 51  1  0
 24 52  1  0
 24 53  1  0
M  END
$$$$
