
     RDKit          3D

 50 52  0  0  0  0  0  0  0  0999 V2000
   -6.7869    1.3651    1.1263 C   0  0  0  0  0  0  0  0  0  0  0  0
   -5.8264    0.2223    0.8292 C   0  0  0  0  0  0  0  0  0  0  0  0
   -4.4577    0.7098    0.3490 C   0  0  0  0  0  0  0  0  0  0  0  0
   -4.2521    1.9220    0.2860 O   0  0  0  0  0  0  0  0  0  0  0  0
   -3.5248   -0.2981    0.0045 N   0  0  0  0  0  0  0  0  0  0  0  0
   -3.9727   -1.6961   -0.0922 C   0  0  0  0  0  0  0  0  0  0  0  0
   -2.8596   -2.7255   -0.1184 C   0  0  0  0  0  0  0  0  0  0  0  0
   -1.9208   -2.4042   -1.2576 C   0  0  0  0  0  0  0  0  0  0  0  0
   -1.4098   -0.9995   -1.0967 C   0  0  0  0  0  0  0  0  0  0  0  0
   -0.1324   -0.7069   -1.6124 C   0  0  0  0  0  0  0  0  0  0  0  0
    0.3987    0.5737   -1.4827 C   0  0  0  0  0  0  0  0  0  0  0  0
    2.0080    0.9243   -2.1380 S   0  0  0  0  0  0  0  0  0  0  0  0
    2.1774    0.1284   -3.3340 O   0  0  0  0  0  0  0  0  0  0  0  0
    2.2170    2.3544   -2.1376 O   0  0  0  0  0  0  0  0  0  0  0  0
    3.0046    0.2423   -0.9803 N   0  0  0  0  0  0  0  0  0  0  0  0
    3.2711    0.9376    0.2861 C   0  0  0  0  0  0  0  0  0  0  0  0
    4.5978    1.6915    0.1892 C   0  0  0  0  0  0  0  0  0  0  0  0
    5.8113    0.7693    0.0374 C   0  0  0  0  0  0  0  0  0  0  0  0
    5.6656   -0.5695    0.7610 C   0  0  0  0  0  0  0  0  0  0  0  0
    4.6686   -0.4961    1.9071 C   0  0  0  0  0  0  0  0  0  0  0  0
    3.2718   -0.0908    1.4292 C   0  0  0  0  0  0  0  0  0  0  0  0
   -0.3384    1.5731   -0.8611 C   0  0  0  0  0  0  0  0  0  0  0  0
   -1.6150    1.2837   -0.3616 C   0  0  0  0  0  0  0  0  0  0  0  0
   -2.1932    0.0079   -0.4840 C   0  0  0  0  0  0  0  0  0  0  0  0
   -7.7507    0.9730    1.4653 H   0  0  0  0  0  0  0  0  0  0  0  0
   -6.3904    2.0196    1.9096 H   0  0  0  0  0  0  0  0  0  0  0  0
   -6.9608    1.9748    0.2335 H   0  0  0  0  0  0  0  0  0  0  0  0
   -5.6897   -0.3569    1.7483 H   0  0  0  0  0  0  0  0  0  0  0  0
   -6.2765   -0.4115    0.0586 H   0  0  0  0  0  0  0  0  0  0  0  0
   -4.5908   -1.7761   -0.9956 H   0  0  0  0  0  0  0  0  0  0  0  0
   -4.6130   -1.9363    0.7614 H   0  0  0  0  0  0  0  0  0  0  0  0
   -3.2779   -3.7302   -0.2443 H   0  0  0  0  0  0  0  0  0  0  0  0
   -2.3187   -2.7142    0.8368 H   0  0  0  0  0  0  0  0  0  0  0  0
   -2.4304   -2.4935   -2.2243 H   0  0  0  0  0  0  0  0  0  0  0  0
   -1.0916   -3.1214   -1.2471 H   0  0  0  0  0  0  0  0  0  0  0  0
    0.4477   -1.4828   -2.1094 H   0  0  0  0  0  0  0  0  0  0  0  0
    3.6657   -0.4423   -1.3409 H   0  0  0  0  0  0  0  0  0  0  0  0
    2.4627    1.6518    0.4810 H   0  0  0  0  0  0  0  0  0  0  0  0
    4.7245    2.2888    1.1018 H   0  0  0  0  0  0  0  0  0  0  0  0
    4.5843    2.4057   -0.6424 H   0  0  0  0  0  0  0  0  0  0  0  0
    6.0032    0.5772   -1.0255 H   0  0  0  0  0  0  0  0  0  0  0  0
    6.6974    1.2962    0.4123 H   0  0  0  0  0  0  0  0  0  0  0  0
    6.6447   -0.8941    1.1317 H   0  0  0  0  0  0  0  0  0  0  0  0
    5.3384   -1.3368    0.0484 H   0  0  0  0  0  0  0  0  0  0  0  0
    4.6126   -1.4620    2.4218 H   0  0  0  0  0  0  0  0  0  0  0  0
    5.0247    0.2305    2.6485 H   0  0  0  0  0  0  0  0  0  0  0  0
    2.7349    0.3290    2.2896 H   0  0  0  0  0  0  0  0  0  0  0  0
    2.7115   -0.9885    1.1373 H   0  0  0  0  0  0  0  0  0  0  0  0
    0.0598    2.5800   -0.7554 H   0  0  0  0  0  0  0  0  0  0  0  0
   -2.1239    2.1015    0.1377 H   0  0  0  0  0  0  0  0  0  0  0  0
  1  2  1  0
  2  3  1  0
  3  4  2  0
  3  5  1  0
  5  6  1  0
  6  7  1  0
  7  8  1  0
  8  9  1  0
  9 10  2  0
 10 11  1  0
 11 12  1  0
 12 13  2  0
 12 14  2  0
 12 15  1  0
 15 16  1  0
 16 17  1  0
 17 18  1  0
 18 19  1  0
 19 20  1  0
 20 21  1  0
 11 22  2  0
 22 23  1  0
 23 24  2  0
 24  5  1  0
 24  9  1  0
 21 16  1  0
  1 25  1  0
  1 26  1  0
  1 27  1  0
  2 28  1  0
  2 29  1  0
  6 30  1  0
  6 31  1  0
  7 32  1  0
  7 33  1  0
  8 34  1  0
  8 35  1  0
 10 36  1  0
 15 37  1  0
 16 38  1  0
 17 39  1  0
 17 40  1  0
 18 41  1  0
 18 42  1  0
 19 43  1  0
 19 44  1  0
 20 45  1  0
 20 46  1  0
 21 47  1  0
 21 48  1  0
 22 49  1  0
 23 50  1  0
M  END
$$$$
