
     RDKit          3D

 43 44  0  0  0  0  0  0  0  0999 V2000
    7.5510    0.5159   -1.8873 C   0  0  0  0  0  0  0  0  0  0  0  0
    6.3391    0.5279   -2.4612 C   0  0  0  0  0  0  0  0  0  0  0  0
    5.2014    1.3908   -2.0194 C   0  0  0  0  0  0  0  0  0  0  0  0
    4.2257    0.5370   -1.3906 N   0  0  0  0  0  0  0  0  0  0  0  0
    2.9803    1.0399   -1.0754 C   0  0  0  0  0  0  0  0  0  0  0  0
    2.6006    2.1563   -1.4125 O   0  0  0  0  0  0  0  0  0  0  0  0
    2.1045    0.1712   -0.2366 C   0  0  0  0  0  0  0  0  0  0  0  0
    2.2469   -1.2222   -0.1952 C   0  0  0  0  0  0  0  0  0  0  0  0
    1.4024   -1.9881    0.6126 C   0  0  0  0  0  0  0  0  0  0  0  0
    0.4079   -1.3689    1.3693 C   0  0  0  0  0  0  0  0  0  0  0  0
    0.2403    0.0224    1.3279 C   0  0  0  0  0  0  0  0  0  0  0  0
   -0.8629    0.6809    2.1151 C   0  0  0  0  0  0  0  0  0  0  0  0
   -2.1445    0.4120    1.5019 N   0  0  0  0  0  0  0  0  0  0  0  0
   -3.0875   -0.3940    2.0920 C   0  0  0  0  0  0  0  0  0  0  0  0
   -2.9373   -0.9009    3.2014 O   0  0  0  0  0  0  0  0  0  0  0  0
   -4.3381   -0.6575    1.2612 C   0  0  0  0  0  0  0  0  0  0  0  0
   -4.0384   -1.5070    0.0183 C   0  0  0  0  0  0  0  0  0  0  0  0
   -4.8382   -0.8668   -1.1091 C   0  0  0  0  0  0  0  0  0  0  0  0
   -4.8272    0.6124   -0.7644 C   0  0  0  0  0  0  0  0  0  0  0  0
   -5.0120    0.6260    0.7493 C   0  0  0  0  0  0  0  0  0  0  0  0
    1.0926    0.7851    0.5150 C   0  0  0  0  0  0  0  0  0  0  0  0
    7.7846    1.1424   -1.0308 H   0  0  0  0  0  0  0  0  0  0  0  0
    8.3395   -0.1273   -2.2665 H   0  0  0  0  0  0  0  0  0  0  0  0
    6.1555   -0.1097   -3.3229 H   0  0  0  0  0  0  0  0  0  0  0  0
    4.7518    1.9058   -2.8753 H   0  0  0  0  0  0  0  0  0  0  0  0
    5.5130    2.1468   -1.2898 H   0  0  0  0  0  0  0  0  0  0  0  0
    4.5802   -0.2330   -0.8407 H   0  0  0  0  0  0  0  0  0  0  0  0
    2.9898   -1.7308   -0.8025 H   0  0  0  0  0  0  0  0  0  0  0  0
    1.5092   -3.0707    0.6419 H   0  0  0  0  0  0  0  0  0  0  0  0
   -0.2520   -1.9778    1.9889 H   0  0  0  0  0  0  0  0  0  0  0  0
   -0.7361    1.7704    2.1201 H   0  0  0  0  0  0  0  0  0  0  0  0
   -0.8351    0.3448    3.1570 H   0  0  0  0  0  0  0  0  0  0  0  0
   -2.2690    0.7097    0.5435 H   0  0  0  0  0  0  0  0  0  0  0  0
   -5.0477   -1.1880    1.9107 H   0  0  0  0  0  0  0  0  0  0  0  0
   -2.9715   -1.5072   -0.2291 H   0  0  0  0  0  0  0  0  0  0  0  0
   -4.3330   -2.5538    0.1667 H   0  0  0  0  0  0  0  0  0  0  0  0
   -5.8679   -1.2462   -1.1060 H   0  0  0  0  0  0  0  0  0  0  0  0
   -4.4054   -1.0701   -2.0925 H   0  0  0  0  0  0  0  0  0  0  0  0
   -3.8653    1.0598   -1.0366 H   0  0  0  0  0  0  0  0  0  0  0  0
   -5.6170    1.1649   -1.2813 H   0  0  0  0  0  0  0  0  0  0  0  0
   -4.6196    1.5455    1.1968 H   0  0  0  0  0  0  0  0  0  0  0  0
   -6.0845    0.5844    0.9801 H   0  0  0  0  0  0  0  0  0  0  0  0
    0.9742    1.8676    0.4650 H   0  0  0  0  0  0  0  0  0  0  0  0
  1  2  2  3
  2  3  1  0
  3  4  1  0
  4  5  1  0
  5  6  2  0
  5  7  1  0
  7  8  2  0
  8  9  1  0
  9 10  2  0
 10 11  1  0
 11 12  1  0
 12 13  1  0
 13 14  1  0
 14 15  2  0
 14 16  1  0
 16 17  1  0
 17 18  1  0
 18 19  1  0
 19 20  1  0
 11 21  2  0
 21  7  1  0
 20 16  1  0
  1 22  1  0
  1 23  1  0
  2 24  1  0
  3 25  1  0
  3 26  1  0
  4 27  1  0
  8 28  1  0
  9 29  1  0
 10 30  1  0
 12 31  1  0
 12 32  1  0
 13 33  1  0
 16 34  1  0
 17 35  1  0
 17 36  1  0
 18 37  1  0
 18 38  1  0
 19 39  1  0
 19 40  1  0
 20 41  1  0
 20 42  1  0
 21 43  1  0
M  END
$$$$
