
     RDKit          3D

 46 49  0  0  0  0  0  0  0  0999 V2000
   -2.6863   -0.7903    1.4515 C   0  0  0  0  0  0  0  0  0  0  0  0
   -3.3004    0.3642    0.6437 C   0  0  0  0  0  0  0  0  0  0  0  0
   -3.2677    1.6119    1.5445 C   0  0  0  0  0  0  0  0  0  0  0  0
   -4.6660    0.0498   -0.1092 C   0  0  0  0  0  0  0  0  0  0  0  0
   -4.4480   -1.1953   -0.9744 C   0  0  0  0  0  0  0  0  0  0  0  0
   -3.0750   -0.8476   -1.5713 C   0  0  0  0  0  0  0  0  0  0  0  0
   -2.8415    0.5160   -0.8857 C   0  0  0  0  0  0  0  0  0  0  0  0
   -1.6242    1.2976   -1.2993 C   0  0  0  0  0  0  0  0  0  0  0  0
   -0.4613    0.6146   -0.7755 N   0  0  0  0  0  0  0  0  0  0  0  0
    0.7500    1.2726   -0.6839 C   0  0  0  0  0  0  0  0  0  0  0  0
    0.8981    2.4592   -0.9527 O   0  0  0  0  0  0  0  0  0  0  0  0
    1.9175    0.4432   -0.2726 C   0  0  0  0  0  0  0  0  0  0  0  0
    1.7652   -0.6900    0.5539 C   0  0  0  0  0  0  0  0  0  0  0  0
    2.8743   -1.4587    0.9213 C   0  0  0  0  0  0  0  0  0  0  0  0
    4.1237   -1.0678    0.4712 C   0  0  0  0  0  0  0  0  0  0  0  0
    4.2814    0.0641   -0.3355 C   0  0  0  0  0  0  0  0  0  0  0  0
    3.1905    0.8280   -0.7163 C   0  0  0  0  0  0  0  0  0  0  0  0
    5.7164    0.2535   -0.7159 C   0  0  0  0  0  0  0  0  0  0  0  0
    6.4200   -0.6173    0.3351 C   0  0  0  0  0  0  0  0  0  0  0  0
    5.4406   -1.7409    0.7045 C   0  0  0  0  0  0  0  0  0  0  0  0
   -4.2470    1.1798   -1.0994 C   0  0  0  0  0  0  0  0  0  0  0  0
   -2.6138   -1.7295    0.8998 H   0  0  0  0  0  0  0  0  0  0  0  0
   -1.6715   -0.5358    1.7765 H   0  0  0  0  0  0  0  0  0  0  0  0
   -3.2846   -0.9899    2.3476 H   0  0  0  0  0  0  0  0  0  0  0  0
   -2.2370    1.8471    1.8334 H   0  0  0  0  0  0  0  0  0  0  0  0
   -3.8413    1.4349    2.4614 H   0  0  0  0  0  0  0  0  0  0  0  0
   -3.6783    2.5119    1.0831 H   0  0  0  0  0  0  0  0  0  0  0  0
   -5.6048    0.1560    0.4331 H   0  0  0  0  0  0  0  0  0  0  0  0
   -5.2132   -1.2958   -1.7514 H   0  0  0  0  0  0  0  0  0  0  0  0
   -4.4303   -2.1184   -0.3883 H   0  0  0  0  0  0  0  0  0  0  0  0
   -2.3160   -1.5935   -1.3194 H   0  0  0  0  0  0  0  0  0  0  0  0
   -3.1231   -0.7587   -2.6624 H   0  0  0  0  0  0  0  0  0  0  0  0
   -1.6489    2.3200   -0.9073 H   0  0  0  0  0  0  0  0  0  0  0  0
   -1.5253    1.3548   -2.3885 H   0  0  0  0  0  0  0  0  0  0  0  0
   -0.4371   -0.3945   -0.8295 H   0  0  0  0  0  0  0  0  0  0  0  0
    0.7880   -0.9701    0.9372 H   0  0  0  0  0  0  0  0  0  0  0  0
    2.7560   -2.3339    1.5527 H   0  0  0  0  0  0  0  0  0  0  0  0
    3.3162    1.7042   -1.3466 H   0  0  0  0  0  0  0  0  0  0  0  0
    5.8913   -0.1274   -1.7273 H   0  0  0  0  0  0  0  0  0  0  0  0
    6.0344    1.2975   -0.6468 H   0  0  0  0  0  0  0  0  0  0  0  0
    7.3828   -1.0009   -0.0166 H   0  0  0  0  0  0  0  0  0  0  0  0
    6.6218   -0.0092    1.2281 H   0  0  0  0  0  0  0  0  0  0  0  0
    5.5710   -2.0583    1.7428 H   0  0  0  0  0  0  0  0  0  0  0  0
    5.5493   -2.5982    0.0323 H   0  0  0  0  0  0  0  0  0  0  0  0
   -4.3769    2.2135   -0.7695 H   0  0  0  0  0  0  0  0  0  0  0  0
   -4.6691    1.1274   -2.1107 H   0  0  0  0  0  0  0  0  0  0  0  0
  1  2  1  0
  2  3  1  0
  2  4  1  0
  4  5  1  0
  5  6  1  0
  6  7  1  0
  7  8  1  0
  8  9  1  0
  9 10  1  0
 10 11  2  0
 10 12  1  0
 12 13  1  0
 13 14  2  0
 14 15  1  0
 15 16  2  0
 16 17  1  0
 16 18  1  0
 18 19  1  0
 19 20  1  0
  7 21  1  0
  7  2  1  0
 17 12  2  0
 21  4  1  0
 20 15  1  0
  1 22  1  0
  1 23  1  0
  1 24  1  0
  3 25  1  0
  3 26  1  0
  3 27  1  0
  4 28  1  0
  5 29  1  0
  5 30  1  0
  6 31  1  0
  6 32  1  0
  8 33  1  0
  8 34  1  0
  9 35  1  0
 13 36  1  0
 14 37  1  0
 17 38  1  0
 18 39  1  0
 18 40  1  0
 19 41  1  0
 19 42  1  0
 20 43  1  0
 20 44  1  0
 21 45  1  0
 21 46  1  0
M  END
$$$$
