
     RDKit          3D

 43 45  0  0  0  0  0  0  0  0999 V2000
    3.3068   -2.5205   -1.8197 O   0  0  0  0  0  0  0  0  0  0  0  0
    2.5122   -1.9352   -1.0890 C   0  0  0  0  0  0  0  0  0  0  0  0
    1.0091   -1.9037   -1.3663 C   0  0  0  0  0  0  0  0  0  0  0  0
    0.3877   -0.9196   -0.5426 O   0  0  0  0  0  0  0  0  0  0  0  0
   -0.9645   -0.7638   -0.6719 C   0  0  0  0  0  0  0  0  0  0  0  0
   -1.7942   -1.4822   -1.5344 C   0  0  0  0  0  0  0  0  0  0  0  0
   -3.1694   -1.2276   -1.5634 C   0  0  0  0  0  0  0  0  0  0  0  0
   -3.7198   -0.2431   -0.7404 C   0  0  0  0  0  0  0  0  0  0  0  0
   -2.8894    0.4816    0.1276 C   0  0  0  0  0  0  0  0  0  0  0  0
   -1.5179    0.2124    0.1618 C   0  0  0  0  0  0  0  0  0  0  0  0
   -3.5241    1.4959    1.0404 C   0  0  0  0  0  0  0  0  0  0  0  0
   -4.5660    2.3330    0.2958 C   0  0  0  0  0  0  0  0  0  0  0  0
   -5.4752    1.5397   -0.6555 C   0  0  0  0  0  0  0  0  0  0  0  0
   -5.1983    0.0361   -0.7084 C   0  0  0  0  0  0  0  0  0  0  0  0
    2.8956   -1.2725    0.0601 N   0  0  0  0  0  0  0  0  0  0  0  0
    4.2925   -1.1189    0.4391 C   0  0  0  0  0  0  0  0  0  0  0  0
    4.9911   -0.0238   -0.3789 C   0  0  0  0  0  0  0  0  0  0  0  0
    4.4907    1.3102    0.1588 C   0  0  0  0  0  0  0  0  0  0  0  0
    4.2708    1.0557    1.9120 S   0  0  0  0  0  0  0  0  0  0  0  0
    5.3973    1.6294    2.6175 O   0  0  0  0  0  0  0  0  0  0  0  0
    2.8986    1.3746    2.2514 O   0  0  0  0  0  0  0  0  0  0  0  0
    4.4467   -0.7179    1.9020 C   0  0  0  0  0  0  0  0  0  0  0  0
    0.8781   -1.6486   -2.4239 H   0  0  0  0  0  0  0  0  0  0  0  0
    0.6149   -2.9011   -1.1418 H   0  0  0  0  0  0  0  0  0  0  0  0
   -1.4093   -2.2520   -2.1947 H   0  0  0  0  0  0  0  0  0  0  0  0
   -3.8052   -1.8037   -2.2315 H   0  0  0  0  0  0  0  0  0  0  0  0
   -0.8722    0.7637    0.8419 H   0  0  0  0  0  0  0  0  0  0  0  0
   -2.7675    2.1632    1.4693 H   0  0  0  0  0  0  0  0  0  0  0  0
   -3.9966    0.9642    1.8756 H   0  0  0  0  0  0  0  0  0  0  0  0
   -5.1765    2.8830    1.0219 H   0  0  0  0  0  0  0  0  0  0  0  0
   -4.0448    3.0987   -0.2946 H   0  0  0  0  0  0  0  0  0  0  0  0
   -5.3530    1.9552   -1.6650 H   0  0  0  0  0  0  0  0  0  0  0  0
   -6.5263    1.7068   -0.3913 H   0  0  0  0  0  0  0  0  0  0  0  0
   -5.6261   -0.4560    0.1738 H   0  0  0  0  0  0  0  0  0  0  0  0
   -5.6951   -0.3897   -1.5880 H   0  0  0  0  0  0  0  0  0  0  0  0
    2.1632   -0.7176    0.5075 H   0  0  0  0  0  0  0  0  0  0  0  0
    4.7810   -2.0843    0.2633 H   0  0  0  0  0  0  0  0  0  0  0  0
    4.8067   -0.1080   -1.4545 H   0  0  0  0  0  0  0  0  0  0  0  0
    6.0748   -0.0940   -0.2217 H   0  0  0  0  0  0  0  0  0  0  0  0
    5.2014    2.1215   -0.0113 H   0  0  0  0  0  0  0  0  0  0  0  0
    3.5181    1.5707   -0.2687 H   0  0  0  0  0  0  0  0  0  0  0  0
    3.7004   -1.1653    2.5626 H   0  0  0  0  0  0  0  0  0  0  0  0
    5.4539   -0.9466    2.2638 H   0  0  0  0  0  0  0  0  0  0  0  0
  1  2  2  0
  2  3  1  0
  3  4  1  0
  4  5  1  0
  5  6  2  0
  6  7  1  0
  7  8  2  0
  8  9  1  0
  9 10  2  0
  9 11  1  0
 11 12  1  0
 12 13  1  0
 13 14  1  0
  2 15  1  0
 15 16  1  0
 16 17  1  0
 17 18  1  0
 18 19  1  0
 19 20  2  0
 19 21  2  0
 19 22  1  0
 10  5  1  0
 22 16  1  0
 14  8  1  0
  3 23  1  0
  3 24  1  0
  6 25  1  0
  7 26  1  0
 10 27  1  0
 11 28  1  0
 11 29  1  0
 12 30  1  0
 12 31  1  0
 13 32  1  0
 13 33  1  0
 14 34  1  0
 14 35  1  0
 15 36  1  0
 16 37  1  0
 17 38  1  0
 17 39  1  0
 18 40  1  0
 18 41  1  0
 22 42  1  0
 22 43  1  0
M  END
$$$$
