
     RDKit          3D

 44 46  0  0  0  0  0  0  0  0999 V2000
   -0.6781   -2.8811   -0.6949 C   0  0  0  0  0  0  0  0  0  0  0  0
   -1.3917   -1.5151   -0.7925 C   0  0  0  0  0  0  0  0  0  0  0  0
   -1.2818   -1.0253   -2.2532 C   0  0  0  0  0  0  0  0  0  0  0  0
   -2.8806   -1.7274   -0.4189 C   0  0  0  0  0  0  0  0  0  0  0  0
   -3.6535   -0.4561   -0.1676 C   0  0  0  0  0  0  0  0  0  0  0  0
   -5.0562   -0.4933   -0.2094 C   0  0  0  0  0  0  0  0  0  0  0  0
   -5.8079    0.6508    0.0565 C   0  0  0  0  0  0  0  0  0  0  0  0
   -5.1666    1.8433    0.3745 C   0  0  0  0  0  0  0  0  0  0  0  0
   -3.7742    1.8903    0.4292 C   0  0  0  0  0  0  0  0  0  0  0  0
   -3.0070    0.7434    0.1706 C   0  0  0  0  0  0  0  0  0  0  0  0
   -1.5036    0.8477    0.2154 C   0  0  0  0  0  0  0  0  0  0  0  0
   -0.7777   -0.5128    0.2263 C   0  0  0  0  0  0  0  0  0  0  0  0
    0.6613   -0.3324    0.0214 N   0  0  0  0  0  0  0  0  0  0  0  0
    1.4636    0.1399    1.0294 C   0  0  0  0  0  0  0  0  0  0  0  0
    1.0891    0.3676    2.1701 O   0  0  0  0  0  0  0  0  0  0  0  0
    2.7432    0.3341    0.5844 N   0  0  0  0  0  0  0  0  0  0  0  0
    3.7604    0.7263    1.5316 C   0  0  0  0  0  0  0  0  0  0  0  0
    5.0064    1.0153    0.7842 C   0  0  0  0  0  0  0  0  0  0  0  0
    5.6883    2.1776    0.4873 C   0  0  0  0  0  0  0  0  0  0  0  0
    6.8189    1.7943   -0.2735 C   0  0  0  0  0  0  0  0  0  0  0  0
    6.7537    0.4257   -0.3953 C   0  0  0  0  0  0  0  0  0  0  0  0
    5.6568   -0.0577    0.2426 O   0  0  0  0  0  0  0  0  0  0  0  0
   -1.1617   -3.6241   -1.3395 H   0  0  0  0  0  0  0  0  0  0  0  0
   -0.7000   -3.2682    0.3304 H   0  0  0  0  0  0  0  0  0  0  0  0
    0.3710   -2.8132   -1.0033 H   0  0  0  0  0  0  0  0  0  0  0  0
   -1.7843   -0.0670   -2.4114 H   0  0  0  0  0  0  0  0  0  0  0  0
   -0.2371   -0.9087   -2.5606 H   0  0  0  0  0  0  0  0  0  0  0  0
   -1.7404   -1.7460   -2.9401 H   0  0  0  0  0  0  0  0  0  0  0  0
   -3.3763   -2.3054   -1.2098 H   0  0  0  0  0  0  0  0  0  0  0  0
   -2.9465   -2.3249    0.5008 H   0  0  0  0  0  0  0  0  0  0  0  0
   -5.5716   -1.4215   -0.4478 H   0  0  0  0  0  0  0  0  0  0  0  0
   -6.8930    0.6093    0.0192 H   0  0  0  0  0  0  0  0  0  0  0  0
   -5.7493    2.7366    0.5839 H   0  0  0  0  0  0  0  0  0  0  0  0
   -3.2848    2.8285    0.6807 H   0  0  0  0  0  0  0  0  0  0  0  0
   -1.2105    1.4143    1.1089 H   0  0  0  0  0  0  0  0  0  0  0  0
   -1.1760    1.4383   -0.6508 H   0  0  0  0  0  0  0  0  0  0  0  0
   -0.8992   -0.9413    1.2323 H   0  0  0  0  0  0  0  0  0  0  0  0
    0.9593   -0.0408   -0.8982 H   0  0  0  0  0  0  0  0  0  0  0  0
    3.0465   -0.3301   -0.1138 H   0  0  0  0  0  0  0  0  0  0  0  0
    3.4163    1.6043    2.0888 H   0  0  0  0  0  0  0  0  0  0  0  0
    3.9113   -0.0936    2.2419 H   0  0  0  0  0  0  0  0  0  0  0  0
    5.4011    3.1769    0.7838 H   0  0  0  0  0  0  0  0  0  0  0  0
    7.5864    2.4356   -0.6847 H   0  0  0  0  0  0  0  0  0  0  0  0
    7.3761   -0.3139   -0.8793 H   0  0  0  0  0  0  0  0  0  0  0  0
  1  2  1  0
  2  3  1  0
  2  4  1  0
  4  5  1  0
  5  6  2  0
  6  7  1  0
  7  8  2  0
  8  9  1  0
  9 10  2  0
 10 11  1  0
 11 12  1  0
 12 13  1  0
 13 14  1  0
 14 15  2  0
 14 16  1  0
 16 17  1  0
 17 18  1  0
 18 19  2  0
 19 20  1  0
 20 21  2  0
 21 22  1  0
 12  2  1  0
 22 18  1  0
 10  5  1  0
  1 23  1  0
  1 24  1  0
  1 25  1  0
  3 26  1  0
  3 27  1  0
  3 28  1  0
  4 29  1  0
  4 30  1  0
  6 31  1  0
  7 32  1  0
  8 33  1  0
  9 34  1  0
 11 35  1  0
 11 36  1  0
 12 37  1  0
 13 38  1  0
 16 39  1  0
 17 40  1  0
 17 41  1  0
 19 42  1  0
 20 43  1  0
 21 44  1  0
M  END
$$$$
