
     RDKit          3D

 46 47  0  0  0  0  0  0  0  0999 V2000
    6.4463   -0.2621   -0.0613 C   0  0  0  0  0  0  0  0  0  0  0  0
    5.1566   -0.1544    0.7459 C   0  0  0  0  0  0  0  0  0  0  0  0
    5.2926    0.8976    1.8442 C   0  0  0  0  0  0  0  0  0  0  0  0
    4.0396    0.1679   -0.1311 N   0  0  0  0  0  0  0  0  0  0  0  0
    2.7428   -0.1695    0.1913 C   0  0  0  0  0  0  0  0  0  0  0  0
    2.4251   -0.8137    1.1839 O   0  0  0  0  0  0  0  0  0  0  0  0
    1.6917    0.2768   -0.7584 C   0  0  0  0  0  0  0  0  0  0  0  0
    1.7738    1.5061   -1.4271 C   0  0  0  0  0  0  0  0  0  0  0  0
    0.7536    1.8994   -2.2973 C   0  0  0  0  0  0  0  0  0  0  0  0
   -0.3571    1.0773   -2.4893 C   0  0  0  0  0  0  0  0  0  0  0  0
   -0.4496   -0.1342   -1.7957 C   0  0  0  0  0  0  0  0  0  0  0  0
   -1.8606   -1.1930   -2.0487 S   0  0  0  0  0  0  0  0  0  0  0  0
   -2.5161   -0.7511   -3.2624 O   0  0  0  0  0  0  0  0  0  0  0  0
   -1.4061   -2.5598   -1.9092 O   0  0  0  0  0  0  0  0  0  0  0  0
   -2.8701   -0.8064   -0.7227 N   0  0  0  0  0  0  0  0  0  0  0  0
   -2.4153   -1.2755    0.6122 C   0  0  0  0  0  0  0  0  0  0  0  0
   -3.6092   -1.8146    1.3921 C   0  0  0  0  0  0  0  0  0  0  0  0
   -4.3772   -0.7679    2.1964 C   0  0  0  0  0  0  0  0  0  0  0  0
   -4.5332    0.6162    1.5713 C   0  0  0  0  0  0  0  0  0  0  0  0
   -4.7584    0.6233    0.0621 C   0  0  0  0  0  0  0  0  0  0  0  0
   -3.4556    0.5548   -0.7349 C   0  0  0  0  0  0  0  0  0  0  0  0
    0.5771   -0.5475   -0.9435 C   0  0  0  0  0  0  0  0  0  0  0  0
    6.6871    0.6853   -0.5563 H   0  0  0  0  0  0  0  0  0  0  0  0
    7.2892   -0.5356    0.5818 H   0  0  0  0  0  0  0  0  0  0  0  0
    6.3522   -1.0264   -0.8405 H   0  0  0  0  0  0  0  0  0  0  0  0
    4.9534   -1.1245    1.2151 H   0  0  0  0  0  0  0  0  0  0  0  0
    6.1245    0.6575    2.5144 H   0  0  0  0  0  0  0  0  0  0  0  0
    5.4705    1.8921    1.4200 H   0  0  0  0  0  0  0  0  0  0  0  0
    4.3803    0.9563    2.4475 H   0  0  0  0  0  0  0  0  0  0  0  0
    4.2315    0.6688   -0.9876 H   0  0  0  0  0  0  0  0  0  0  0  0
    2.6125    2.1772   -1.2624 H   0  0  0  0  0  0  0  0  0  0  0  0
    0.8217    2.8501   -2.8222 H   0  0  0  0  0  0  0  0  0  0  0  0
   -1.1438    1.3865   -3.1751 H   0  0  0  0  0  0  0  0  0  0  0  0
   -1.7085   -2.1034    0.4986 H   0  0  0  0  0  0  0  0  0  0  0  0
   -1.8915   -0.4814    1.1550 H   0  0  0  0  0  0  0  0  0  0  0  0
   -3.2576   -2.5782    2.0976 H   0  0  0  0  0  0  0  0  0  0  0  0
   -4.2999   -2.3289    0.7113 H   0  0  0  0  0  0  0  0  0  0  0  0
   -5.3731   -1.1749    2.4140 H   0  0  0  0  0  0  0  0  0  0  0  0
   -3.8917   -0.6428    3.1729 H   0  0  0  0  0  0  0  0  0  0  0  0
   -3.6587    1.2307    1.8191 H   0  0  0  0  0  0  0  0  0  0  0  0
   -5.3862    1.1061    2.0581 H   0  0  0  0  0  0  0  0  0  0  0  0
   -5.4471   -0.1763   -0.2349 H   0  0  0  0  0  0  0  0  0  0  0  0
   -5.2475    1.5718   -0.1939 H   0  0  0  0  0  0  0  0  0  0  0  0
   -2.7292    1.2830   -0.3569 H   0  0  0  0  0  0  0  0  0  0  0  0
   -3.6985    0.8412   -1.7639 H   0  0  0  0  0  0  0  0  0  0  0  0
    0.5197   -1.5040   -0.4269 H   0  0  0  0  0  0  0  0  0  0  0  0
  1  2  1  0
  2  3  1  0
  2  4  1  0
  4  5  1  0
  5  6  2  0
  5  7  1  0
  7  8  2  0
  8  9  1  0
  9 10  2  0
 10 11  1  0
 11 12  1  0
 12 13  2  0
 12 14  2  0
 12 15  1  0
 15 16  1  0
 16 17  1  0
 17 18  1  0
 18 19  1  0
 19 20  1  0
 20 21  1  0
 11 22  2  0
 22  7  1  0
 21 15  1  0
  1 23  1  0
  1 24  1  0
  1 25  1  0
  2 26  1  0
  3 27  1  0
  3 28  1  0
  3 29  1  0
  4 30  1  0
  8 31  1  0
  9 32  1  0
 10 33  1  0
 16 34  1  0
 16 35  1  0
 17 36  1  0
 17 37  1  0
 18 38  1  0
 18 39  1  0
 19 40  1  0
 19 41  1  0
 20 42  1  0
 20 43  1  0
 21 44  1  0
 21 45  1  0
 22 46  1  0
M  END
$$$$
