
     RDKit          3D

 49 50  0  0  0  0  0  0  0  0999 V2000
    5.6533   -0.4474   -1.0355 C   0  0  0  0  0  0  0  0  0  0  0  0
    5.1814    0.8036   -0.2784 C   0  0  0  0  0  0  0  0  0  0  0  0
    4.7545    1.8954   -1.2718 C   0  0  0  0  0  0  0  0  0  0  0  0
    6.3579    1.3391    0.5590 C   0  0  0  0  0  0  0  0  0  0  0  0
    4.0023    0.4463    0.6595 C   0  0  0  0  0  0  0  0  0  0  0  0
    4.0833    0.6127    1.8735 O   0  0  0  0  0  0  0  0  0  0  0  0
    2.8919   -0.0540   -0.0031 N   0  0  0  0  0  0  0  0  0  0  0  0
    1.6726   -0.4887    0.5591 C   0  0  0  0  0  0  0  0  0  0  0  0
    1.4029   -0.5121    1.9308 C   0  0  0  0  0  0  0  0  0  0  0  0
    0.1694   -0.9679    2.4129 C   0  0  0  0  0  0  0  0  0  0  0  0
   -0.8117   -1.4017    1.5271 C   0  0  0  0  0  0  0  0  0  0  0  0
   -0.5483   -1.3706    0.1574 C   0  0  0  0  0  0  0  0  0  0  0  0
   -1.8063   -1.9083   -0.9715 S   0  0  0  0  0  0  0  0  0  0  0  0
   -2.2109   -3.2316   -0.5486 O   0  0  0  0  0  0  0  0  0  0  0  0
   -1.3458   -1.6574   -2.3218 O   0  0  0  0  0  0  0  0  0  0  0  0
   -3.0908   -0.8198   -0.6624 N   0  0  0  0  0  0  0  0  0  0  0  0
   -2.7919    0.6079   -0.9407 C   0  0  0  0  0  0  0  0  0  0  0  0
   -3.9500    1.5533   -0.6174 C   0  0  0  0  0  0  0  0  0  0  0  0
   -4.7464    1.1920    0.6363 C   0  0  0  0  0  0  0  0  0  0  0  0
   -5.8676    0.1888    0.3560 C   0  0  0  0  0  0  0  0  0  0  0  0
   -5.4076   -1.2213   -0.0131 C   0  0  0  0  0  0  0  0  0  0  0  0
   -4.4098   -1.2773   -1.1664 C   0  0  0  0  0  0  0  0  0  0  0  0
    0.6849   -0.9251   -0.3309 C   0  0  0  0  0  0  0  0  0  0  0  0
    4.8902   -0.8237   -1.7252 H   0  0  0  0  0  0  0  0  0  0  0  0
    6.5509   -0.2364   -1.6278 H   0  0  0  0  0  0  0  0  0  0  0  0
    5.8914   -1.2600   -0.3395 H   0  0  0  0  0  0  0  0  0  0  0  0
    4.3470    2.7662   -0.7455 H   0  0  0  0  0  0  0  0  0  0  0  0
    5.6034    2.2335   -1.8769 H   0  0  0  0  0  0  0  0  0  0  0  0
    3.9821    1.5435   -1.9638 H   0  0  0  0  0  0  0  0  0  0  0  0
    7.2122    1.6013   -0.0754 H   0  0  0  0  0  0  0  0  0  0  0  0
    6.6994    0.5936    1.2865 H   0  0  0  0  0  0  0  0  0  0  0  0
    6.0710    2.2369    1.1188 H   0  0  0  0  0  0  0  0  0  0  0  0
    2.9530   -0.1191   -1.0106 H   0  0  0  0  0  0  0  0  0  0  0  0
    2.1378   -0.1888    2.6621 H   0  0  0  0  0  0  0  0  0  0  0  0
   -0.0161   -0.9848    3.4845 H   0  0  0  0  0  0  0  0  0  0  0  0
   -1.7689   -1.7588    1.9004 H   0  0  0  0  0  0  0  0  0  0  0  0
   -2.5071    0.7394   -1.9907 H   0  0  0  0  0  0  0  0  0  0  0  0
   -1.9397    0.9135   -0.3241 H   0  0  0  0  0  0  0  0  0  0  0  0
   -3.5301    2.5597   -0.4927 H   0  0  0  0  0  0  0  0  0  0  0  0
   -4.6250    1.6234   -1.4795 H   0  0  0  0  0  0  0  0  0  0  0  0
   -4.0864    0.8281    1.4323 H   0  0  0  0  0  0  0  0  0  0  0  0
   -5.2155    2.1092    1.0140 H   0  0  0  0  0  0  0  0  0  0  0  0
   -6.5029    0.1182    1.2476 H   0  0  0  0  0  0  0  0  0  0  0  0
   -6.5092    0.5778   -0.4448 H   0  0  0  0  0  0  0  0  0  0  0  0
   -4.9771   -1.7035    0.8739 H   0  0  0  0  0  0  0  0  0  0  0  0
   -6.2949   -1.8053   -0.2865 H   0  0  0  0  0  0  0  0  0  0  0  0
   -4.7429   -0.6845   -2.0251 H   0  0  0  0  0  0  0  0  0  0  0  0
   -4.3558   -2.3134   -1.5177 H   0  0  0  0  0  0  0  0  0  0  0  0
    0.8661   -0.9219   -1.4030 H   0  0  0  0  0  0  0  0  0  0  0  0
  1  2  1  0
  2  3  1  0
  2  4  1  0
  2  5  1  0
  5  6  2  0
  5  7  1  0
  7  8  1  0
  8  9  2  0
  9 10  1  0
 10 11  2  0
 11 12  1  0
 12 13  1  0
 13 14  2  0
 13 15  2  0
 13 16  1  0
 16 17  1  0
 17 18  1  0
 18 19  1  0
 19 20  1  0
 20 21  1  0
 21 22  1  0
 12 23  2  0
 23  8  1  0
 22 16  1  0
  1 24  1  0
  1 25  1  0
  1 26  1  0
  3 27  1  0
  3 28  1  0
  3 29  1  0
  4 30  1  0
  4 31  1  0
  4 32  1  0
  7 33  1  0
  9 34  1  0
 10 35  1  0
 11 36  1  0
 17 37  1  0
 17 38  1  0
 18 39  1  0
 18 40  1  0
 19 41  1  0
 19 42  1  0
 20 43  1  0
 20 44  1  0
 21 45  1  0
 21 46  1  0
 22 47  1  0
 22 48  1  0
 23 49  1  0
M  END
$$$$
