
     RDKit          3D

 60 61  0  0  0  0  0  0  0  0999 V2000
    8.6056   -0.0481   -2.1793 C   0  0  0  0  0  0  0  0  0  0  0  0
    7.5866    0.3337   -1.1468 C   0  0  0  0  0  0  0  0  0  0  0  0
    6.8129   -0.6443   -0.5116 C   0  0  0  0  0  0  0  0  0  0  0  0
    5.8835   -0.2861    0.4688 C   0  0  0  0  0  0  0  0  0  0  0  0
    5.7198    1.0558    0.8390 C   0  0  0  0  0  0  0  0  0  0  0  0
    4.6970    1.4401    1.8834 C   0  0  0  0  0  0  0  0  0  0  0  0
    3.4762    2.1502    1.2879 C   0  0  0  0  0  0  0  0  0  0  0  0
    2.7754    1.3475    0.3023 N   0  0  0  0  0  0  0  0  0  0  0  0
    1.9204    0.3325    0.6708 C   0  0  0  0  0  0  0  0  0  0  0  0
    1.6462    0.0676    1.8400 O   0  0  0  0  0  0  0  0  0  0  0  0
    1.3858   -0.4922   -0.5034 C   0  0  0  0  0  0  0  0  0  0  0  0
    0.1960   -1.2145   -0.0883 N   0  0  0  0  0  0  0  0  0  0  0  0
   -1.0569   -0.6975   -0.3419 C   0  0  0  0  0  0  0  0  0  0  0  0
   -1.2520    0.2672   -1.0830 O   0  0  0  0  0  0  0  0  0  0  0  0
   -2.2192   -1.4535    0.3418 C   0  0  0  0  0  0  0  0  0  0  0  0
   -3.4156   -0.6256    0.2019 N   0  0  0  0  0  0  0  0  0  0  0  0
   -4.3334   -0.4917    1.2181 C   0  0  0  0  0  0  0  0  0  0  0  0
   -4.2669   -1.1139    2.2718 O   0  0  0  0  0  0  0  0  0  0  0  0
   -5.4366    0.4840    0.9930 C   0  0  0  0  0  0  0  0  0  0  0  0
   -6.0712    1.0368    2.1187 C   0  0  0  0  0  0  0  0  0  0  0  0
   -7.1220    1.9436    1.9644 C   0  0  0  0  0  0  0  0  0  0  0  0
   -7.5344    2.2849    0.6857 C   0  0  0  0  0  0  0  0  0  0  0  0
   -8.5633    3.1695    0.5333 O   0  0  0  0  0  0  0  0  0  0  0  0
   -6.9185    1.7333   -0.4372 C   0  0  0  0  0  0  0  0  0  0  0  0
   -7.3891    2.1109   -1.6652 O   0  0  0  0  0  0  0  0  0  0  0  0
   -5.8710    0.8281   -0.2976 C   0  0  0  0  0  0  0  0  0  0  0  0
   -2.3912   -2.8714   -0.2539 C   0  0  0  0  0  0  0  0  0  0  0  0
   -2.8322   -2.8515   -1.7220 C   0  0  0  0  0  0  0  0  0  0  0  0
   -3.3650   -3.7210    0.5670 C   0  0  0  0  0  0  0  0  0  0  0  0
    6.5075    2.0321    0.2158 C   0  0  0  0  0  0  0  0  0  0  0  0
    7.4363    1.6723   -0.7651 C   0  0  0  0  0  0  0  0  0  0  0  0
    9.5878   -0.1633   -1.7117 H   0  0  0  0  0  0  0  0  0  0  0  0
    8.6700    0.7168   -2.9605 H   0  0  0  0  0  0  0  0  0  0  0  0
    8.3352   -0.9900   -2.6688 H   0  0  0  0  0  0  0  0  0  0  0  0
    6.9301   -1.6943   -0.7734 H   0  0  0  0  0  0  0  0  0  0  0  0
    5.2919   -1.0650    0.9468 H   0  0  0  0  0  0  0  0  0  0  0  0
    4.3765    0.5466    2.4338 H   0  0  0  0  0  0  0  0  0  0  0  0
    5.1771    2.0944    2.6214 H   0  0  0  0  0  0  0  0  0  0  0  0
    3.7680    3.0810    0.7898 H   0  0  0  0  0  0  0  0  0  0  0  0
    2.7758    2.4046    2.0913 H   0  0  0  0  0  0  0  0  0  0  0  0
    3.1304    1.3669   -0.6472 H   0  0  0  0  0  0  0  0  0  0  0  0
    2.1442   -1.2326   -0.7759 H   0  0  0  0  0  0  0  0  0  0  0  0
    1.1745    0.1545   -1.3602 H   0  0  0  0  0  0  0  0  0  0  0  0
    0.2970   -1.7388    0.7754 H   0  0  0  0  0  0  0  0  0  0  0  0
   -1.9682   -1.5264    1.4079 H   0  0  0  0  0  0  0  0  0  0  0  0
   -3.3529    0.0960   -0.5100 H   0  0  0  0  0  0  0  0  0  0  0  0
   -5.7456    0.7612    3.1205 H   0  0  0  0  0  0  0  0  0  0  0  0
   -7.6133    2.3743    2.8322 H   0  0  0  0  0  0  0  0  0  0  0  0
   -8.6749    3.2558   -0.4348 H   0  0  0  0  0  0  0  0  0  0  0  0
   -6.8698    1.6557   -2.3510 H   0  0  0  0  0  0  0  0  0  0  0  0
   -5.4169    0.3782   -1.1741 H   0  0  0  0  0  0  0  0  0  0  0  0
   -1.4187   -3.3794   -0.2163 H   0  0  0  0  0  0  0  0  0  0  0  0
   -2.8865   -3.8712   -2.1192 H   0  0  0  0  0  0  0  0  0  0  0  0
   -3.8210   -2.3959   -1.8415 H   0  0  0  0  0  0  0  0  0  0  0  0
   -2.1221   -2.2955   -2.3435 H   0  0  0  0  0  0  0  0  0  0  0  0
   -3.3743   -4.7541    0.2020 H   0  0  0  0  0  0  0  0  0  0  0  0
   -3.0700   -3.7450    1.6213 H   0  0  0  0  0  0  0  0  0  0  0  0
   -4.3893   -3.3401    0.5038 H   0  0  0  0  0  0  0  0  0  0  0  0
    6.4102    3.0802    0.4930 H   0  0  0  0  0  0  0  0  0  0  0  0
    8.0442    2.4467   -1.2303 H   0  0  0  0  0  0  0  0  0  0  0  0
  1  2  1  0
  2  3  2  0
  3  4  1  0
  4  5  2  0
  5  6  1  0
  6  7  1  0
  7  8  1  0
  8  9  1  0
  9 10  2  0
  9 11  1  0
 11 12  1  0
 12 13  1  0
 13 14  2  0
 13 15  1  0
 15 16  1  0
 16 17  1  0
 17 18  2  0
 17 19  1  0
 19 20  2  0
 20 21  1  0
 21 22  2  0
 22 23  1  0
 22 24  1  0
 24 25  1  0
 24 26  2  0
 15 27  1  0
 27 28  1  0
 27 29  1  0
  5 30  1  0
 30 31  2  0
 31  2  1  0
 26 19  1  0
  1 32  1  0
  1 33  1  0
  1 34  1  0
  3 35  1  0
  4 36  1  0
  6 37  1  0
  6 38  1  0
  7 39  1  0
  7 40  1  0
  8 41  1  0
 11 42  1  0
 11 43  1  0
 12 44  1  0
 15 45  1  0
 16 46  1  0
 20 47  1  0
 21 48  1  0
 23 49  1  0
 25 50  1  0
 26 51  1  0
 27 52  1  0
 28 53  1  0
 28 54  1  0
 28 55  1  0
 29 56  1  0
 29 57  1  0
 29 58  1  0
 30 59  1  0
 31 60  1  0
M  END
$$$$
