
     RDKit          3D

 52 54  0  0  0  0  0  0  0  0999 V2000
    7.5053    1.2201    3.0034 C   0  0  0  0  0  0  0  0  0  0  0  0
    6.4682    1.6345    1.9935 C   0  0  0  0  0  0  0  0  0  0  0  0
    6.1472    2.8121    1.8471 O   0  0  0  0  0  0  0  0  0  0  0  0
    5.8316    0.5934    1.1378 C   0  0  0  0  0  0  0  0  0  0  0  0
    6.3496   -0.6990    1.0304 C   0  0  0  0  0  0  0  0  0  0  0  0
    5.7140   -1.6320    0.2124 C   0  0  0  0  0  0  0  0  0  0  0  0
    4.5704   -1.2751   -0.5078 C   0  0  0  0  0  0  0  0  0  0  0  0
    4.0458    0.0231   -0.4335 C   0  0  0  0  0  0  0  0  0  0  0  0
    2.8665    0.3930   -1.1583 N   0  0  0  0  0  0  0  0  0  0  0  0
    2.7573    1.5812   -1.8638 C   0  0  0  0  0  0  0  0  0  0  0  0
    3.8290    2.3981   -2.0798 N   0  0  0  0  0  0  0  0  0  0  0  0
    1.6497    1.9799   -2.4237 N   0  0  0  0  0  0  0  0  0  0  0  0
    0.4850    1.2362   -2.3451 N   0  0  0  0  0  0  0  0  0  0  0  0
    0.5107    0.0653   -1.7916 C   0  0  0  0  0  0  0  0  0  0  0  0
   -0.6132   -0.7418   -1.7014 N   0  0  0  0  0  0  0  0  0  0  0  0
   -1.7151   -0.5955   -2.6536 C   0  0  0  0  0  0  0  0  0  0  0  0
   -2.9189   -1.4449   -2.2322 C   0  0  0  0  0  0  0  0  0  0  0  0
   -3.7664   -1.8281   -3.0339 O   0  0  0  0  0  0  0  0  0  0  0  0
   -2.9712   -1.7111   -0.8792 N   0  0  0  0  0  0  0  0  0  0  0  0
   -4.1184   -2.3319   -0.2614 C   0  0  0  0  0  0  0  0  0  0  0  0
   -5.0289   -1.2938    0.3401 C   0  0  0  0  0  0  0  0  0  0  0  0
   -5.9710   -0.6322   -0.4585 C   0  0  0  0  0  0  0  0  0  0  0  0
   -6.8006    0.3499    0.0871 C   0  0  0  0  0  0  0  0  0  0  0  0
   -6.7068    0.6850    1.4421 C   0  0  0  0  0  0  0  0  0  0  0  0
   -7.5736    1.7645    2.0190 C   0  0  0  0  0  0  0  0  0  0  0  0
   -5.7509    0.0419    2.2364 C   0  0  0  0  0  0  0  0  0  0  0  0
   -4.9198   -0.9402    1.6912 C   0  0  0  0  0  0  0  0  0  0  0  0
    1.7960   -0.4804   -1.1892 C   0  0  0  0  0  0  0  0  0  0  0  0
    1.7378   -1.6338   -0.7629 O   0  0  0  0  0  0  0  0  0  0  0  0
    4.6809    0.9443    0.4130 C   0  0  0  0  0  0  0  0  0  0  0  0
    7.1532    0.3667    3.5890 H   0  0  0  0  0  0  0  0  0  0  0  0
    8.4449    0.9827    2.4984 H   0  0  0  0  0  0  0  0  0  0  0  0
    7.6789    2.0475    3.6984 H   0  0  0  0  0  0  0  0  0  0  0  0
    7.2438   -1.0035    1.5669 H   0  0  0  0  0  0  0  0  0  0  0  0
    6.1093   -2.6424    0.1280 H   0  0  0  0  0  0  0  0  0  0  0  0
    4.1130   -2.0269   -1.1488 H   0  0  0  0  0  0  0  0  0  0  0  0
    3.5994    3.3131   -2.4515 H   0  0  0  0  0  0  0  0  0  0  0  0
    4.6936    2.3308   -1.5672 H   0  0  0  0  0  0  0  0  0  0  0  0
   -0.3849   -1.7119   -1.4778 H   0  0  0  0  0  0  0  0  0  0  0  0
   -1.3878   -0.9289   -3.6437 H   0  0  0  0  0  0  0  0  0  0  0  0
   -2.0510    0.4453   -2.7081 H   0  0  0  0  0  0  0  0  0  0  0  0
   -2.3488   -1.1649   -0.2929 H   0  0  0  0  0  0  0  0  0  0  0  0
   -4.6650   -2.9452   -0.9865 H   0  0  0  0  0  0  0  0  0  0  0  0
   -3.7437   -3.0060    0.5167 H   0  0  0  0  0  0  0  0  0  0  0  0
   -6.0566   -0.8758   -1.5167 H   0  0  0  0  0  0  0  0  0  0  0  0
   -7.5191    0.8534   -0.5559 H   0  0  0  0  0  0  0  0  0  0  0  0
   -7.7734    1.5799    3.0798 H   0  0  0  0  0  0  0  0  0  0  0  0
   -8.5416    1.8028    1.5085 H   0  0  0  0  0  0  0  0  0  0  0  0
   -7.0801    2.7357    1.9157 H   0  0  0  0  0  0  0  0  0  0  0  0
   -5.6461    0.3038    3.2869 H   0  0  0  0  0  0  0  0  0  0  0  0
   -4.1853   -1.4249    2.3300 H   0  0  0  0  0  0  0  0  0  0  0  0
    4.2574    1.9386    0.5536 H   0  0  0  0  0  0  0  0  0  0  0  0
  1  2  1  0
  2  3  2  0
  2  4  1  0
  4  5  2  0
  5  6  1  0
  6  7  2  0
  7  8  1  0
  8  9  1  0
  9 10  1  0
 10 11  1  0
 10 12  2  0
 12 13  1  0
 13 14  2  0
 14 15  1  0
 15 16  1  0
 16 17  1  0
 17 18  2  0
 17 19  1  0
 19 20  1  0
 20 21  1  0
 21 22  2  0
 22 23  1  0
 23 24  2  0
 24 25  1  0
 24 26  1  0
 26 27  2  0
 14 28  1  0
 28 29  2  0
  8 30  2  0
 30  4  1  0
 28  9  1  0
 27 21  1  0
  1 31  1  0
  1 32  1  0
  1 33  1  0
  5 34  1  0
  6 35  1  0
  7 36  1  0
 11 37  1  0
 11 38  1  0
 15 39  1  0
 16 40  1  0
 16 41  1  0
 19 42  1  0
 20 43  1  0
 20 44  1  0
 22 45  1  0
 23 46  1  0
 25 47  1  0
 25 48  1  0
 25 49  1  0
 26 50  1  0
 27 51  1  0
 30 52  1  0
M  END
$$$$
