
     RDKit          3D

 69 73  0  0  0  0  0  0  0  0999 V2000
   -5.3736    4.1226   -1.2915 C   0  0  0  0  0  0  0  0  0  0  0  0
   -4.0888    3.3500   -1.3159 C   0  0  0  0  0  0  0  0  0  0  0  0
   -2.9603    3.8239   -0.6380 C   0  0  0  0  0  0  0  0  0  0  0  0
   -1.7566    3.1181   -0.6851 C   0  0  0  0  0  0  0  0  0  0  0  0
   -1.6616    1.9256   -1.4135 C   0  0  0  0  0  0  0  0  0  0  0  0
   -0.3748    1.1352   -1.4215 C   0  0  0  0  0  0  0  0  0  0  0  0
   -0.0400    0.4910   -0.0655 C   0  0  0  0  0  0  0  0  0  0  0  0
    1.3298   -0.0211   -0.0548 N   0  0  0  0  0  0  0  0  0  0  0  0
    2.4112    0.7913    0.1747 C   0  0  0  0  0  0  0  0  0  0  0  0
    2.2799    1.9992    0.3563 O   0  0  0  0  0  0  0  0  0  0  0  0
    3.7769    0.0890    0.1705 C   0  0  0  0  0  0  0  0  0  0  0  0
    4.9014    1.1167    0.4646 C   0  0  0  0  0  0  0  0  0  0  0  0
    6.2794    0.4354    0.4589 C   0  0  0  0  0  0  0  0  0  0  0  0
    6.5221   -0.1976   -0.9211 C   0  0  0  0  0  0  0  0  0  0  0  0
    5.4307   -1.2379   -1.2217 C   0  0  0  0  0  0  0  0  0  0  0  0
    5.4567   -2.3286   -0.1363 C   0  0  0  0  0  0  0  0  0  0  0  0
    5.2111   -1.7041    1.2483 C   0  0  0  0  0  0  0  0  0  0  0  0
    6.3043   -0.6623    1.5349 C   0  0  0  0  0  0  0  0  0  0  0  0
    3.8357   -1.0140    1.2553 C   0  0  0  0  0  0  0  0  0  0  0  0
    4.0542   -0.5498   -1.2121 C   0  0  0  0  0  0  0  0  0  0  0  0
   -0.9644   -0.7082    0.2275 C   0  0  0  0  0  0  0  0  0  0  0  0
   -0.6128   -1.8664    0.0037 O   0  0  0  0  0  0  0  0  0  0  0  0
   -2.1976   -0.3790    0.7493 N   0  0  0  0  0  0  0  0  0  0  0  0
   -3.2273   -1.3776    0.9968 C   0  0  0  0  0  0  0  0  0  0  0  0
   -4.1890   -0.8800    2.0827 C   0  0  0  0  0  0  0  0  0  0  0  0
   -5.3260   -1.8679    2.3285 C   0  0  0  0  0  0  0  0  0  0  0  0
   -6.0705   -2.1991    1.0389 C   0  0  0  0  0  0  0  0  0  0  0  0
   -5.1193   -2.7018   -0.0428 C   0  0  0  0  0  0  0  0  0  0  0  0
   -3.9837   -1.7138   -0.2949 C   0  0  0  0  0  0  0  0  0  0  0  0
   -2.7823    1.4683   -2.1163 C   0  0  0  0  0  0  0  0  0  0  0  0
   -3.9846    2.1767   -2.0697 C   0  0  0  0  0  0  0  0  0  0  0  0
   -5.4256    4.7915   -2.1561 H   0  0  0  0  0  0  0  0  0  0  0  0
   -5.4542    4.7212   -0.3781 H   0  0  0  0  0  0  0  0  0  0  0  0
   -6.2338    3.4450   -1.3122 H   0  0  0  0  0  0  0  0  0  0  0  0
   -3.0092    4.7501   -0.0694 H   0  0  0  0  0  0  0  0  0  0  0  0
   -0.8902    3.5081   -0.1520 H   0  0  0  0  0  0  0  0  0  0  0  0
    0.4307    1.8131   -1.7337 H   0  0  0  0  0  0  0  0  0  0  0  0
   -0.4198    0.3591   -2.1980 H   0  0  0  0  0  0  0  0  0  0  0  0
   -0.1303    1.2119    0.7563 H   0  0  0  0  0  0  0  0  0  0  0  0
    1.4364   -1.0236   -0.1875 H   0  0  0  0  0  0  0  0  0  0  0  0
    4.7318    1.5977    1.4370 H   0  0  0  0  0  0  0  0  0  0  0  0
    4.8870    1.9213   -0.2828 H   0  0  0  0  0  0  0  0  0  0  0  0
    7.0597    1.1760    0.6682 H   0  0  0  0  0  0  0  0  0  0  0  0
    7.5105   -0.6732   -0.9464 H   0  0  0  0  0  0  0  0  0  0  0  0
    6.5232    0.5802   -1.6956 H   0  0  0  0  0  0  0  0  0  0  0  0
    5.6112   -1.6895   -2.2037 H   0  0  0  0  0  0  0  0  0  0  0  0
    4.6911   -3.0856   -0.3475 H   0  0  0  0  0  0  0  0  0  0  0  0
    6.4253   -2.8437   -0.1471 H   0  0  0  0  0  0  0  0  0  0  0  0
    5.2356   -2.4860    2.0159 H   0  0  0  0  0  0  0  0  0  0  0  0
    7.2882   -1.1470    1.5525 H   0  0  0  0  0  0  0  0  0  0  0  0
    6.1501   -0.2182    2.5262 H   0  0  0  0  0  0  0  0  0  0  0  0
    3.6391   -0.5801    2.2445 H   0  0  0  0  0  0  0  0  0  0  0  0
    3.0563   -1.7685    1.0924 H   0  0  0  0  0  0  0  0  0  0  0  0
    4.0134    0.2184   -1.9959 H   0  0  0  0  0  0  0  0  0  0  0  0
    3.2816   -1.2869   -1.4655 H   0  0  0  0  0  0  0  0  0  0  0  0
   -2.4917    0.5911    0.6958 H   0  0  0  0  0  0  0  0  0  0  0  0
   -2.7300   -2.2879    1.3569 H   0  0  0  0  0  0  0  0  0  0  0  0
   -3.6406   -0.7117    3.0175 H   0  0  0  0  0  0  0  0  0  0  0  0
   -4.6100    0.0916    1.7930 H   0  0  0  0  0  0  0  0  0  0  0  0
   -4.9201   -2.7894    2.7630 H   0  0  0  0  0  0  0  0  0  0  0  0
   -6.0256   -1.4501    3.0612 H   0  0  0  0  0  0  0  0  0  0  0  0
   -6.5916   -1.3040    0.6788 H   0  0  0  0  0  0  0  0  0  0  0  0
   -6.8368   -2.9565    1.2377 H   0  0  0  0  0  0  0  0  0  0  0  0
   -4.7009   -3.6696    0.2588 H   0  0  0  0  0  0  0  0  0  0  0  0
   -5.6742   -2.8690   -0.9726 H   0  0  0  0  0  0  0  0  0  0  0  0
   -3.2964   -2.1300   -1.0412 H   0  0  0  0  0  0  0  0  0  0  0  0
   -4.3973   -0.7964   -0.7317 H   0  0  0  0  0  0  0  0  0  0  0  0
   -2.7316    0.5523   -2.7016 H   0  0  0  0  0  0  0  0  0  0  0  0
   -4.8418    1.8044   -2.6269 H   0  0  0  0  0  0  0  0  0  0  0  0
  1  2  1  0
  2  3  2  0
  3  4  1  0
  4  5  2  0
  5  6  1  0
  6  7  1  0
  7  8  1  0
  8  9  1  0
  9 10  2  0
  9 11  1  0
 11 12  1  0
 12 13  1  0
 13 14  1  0
 14 15  1  0
 15 16  1  0
 16 17  1  0
 17 18  1  0
 17 19  1  0
 15 20  1  0
  7 21  1  0
 21 22  2  0
 21 23  1  0
 23 24  1  0
 24 25  1  0
 25 26  1  0
 26 27  1  0
 27 28  1  0
 28 29  1  0
  5 30  1  0
 30 31  2  0
 31  2  1  0
 19 11  1  0
 29 24  1  0
 20 11  1  0
 18 13  1  0
  1 32  1  0
  1 33  1  0
  1 34  1  0
  3 35  1  0
  4 36  1  0
  6 37  1  0
  6 38  1  0
  7 39  1  0
  8 40  1  0
 12 41  1  0
 12 42  1  0
 13 43  1  0
 14 44  1  0
 14 45  1  0
 15 46  1  0
 16 47  1  0
 16 48  1  0
 17 49  1  0
 18 50  1  0
 18 51  1  0
 19 52  1  0
 19 53  1  0
 20 54  1  0
 20 55  1  0
 23 56  1  0
 24 57  1  0
 25 58  1  0
 25 59  1  0
 26 60  1  0
 26 61  1  0
 27 62  1  0
 27 63  1  0
 28 64  1  0
 28 65  1  0
 29 66  1  0
 29 67  1  0
 30 68  1  0
 31 69  1  0
M  END
$$$$
