
     RDKit          3D

 49 51  0  0  0  0  0  0  0  0999 V2000
   -1.8049    3.6573   -0.1829 C   0  0  0  0  0  0  0  0  0  0  0  0
   -1.4086    2.2613   -0.0387 N   0  0  0  0  0  0  0  0  0  0  0  0
   -0.9936    1.9565    1.3487 C   0  0  0  0  0  0  0  0  0  0  0  0
   -1.1551    0.4698    1.7682 C   0  0  0  0  0  0  0  0  0  0  0  0
   -0.9817   -0.4109    0.5911 N   0  0  0  0  0  0  0  0  0  0  0  0
   -0.8517   -1.7840    0.9007 C   0  0  0  0  0  0  0  0  0  0  0  0
   -1.8786   -2.4508    1.6020 C   0  0  0  0  0  0  0  0  0  0  0  0
   -1.7995   -3.8161    1.9251 C   0  0  0  0  0  0  0  0  0  0  0  0
   -2.9316   -4.4752    2.6729 C   0  0  0  0  0  0  0  0  0  0  0  0
   -3.1601   -3.8931    3.8830 F   0  0  0  0  0  0  0  0  0  0  0  0
   -4.1110   -4.4000    1.9958 F   0  0  0  0  0  0  0  0  0  0  0  0
   -2.7279   -5.7970    2.9254 F   0  0  0  0  0  0  0  0  0  0  0  0
   -0.6661   -4.5331    1.5383 C   0  0  0  0  0  0  0  0  0  0  0  0
    0.3642   -3.8956    0.8445 C   0  0  0  0  0  0  0  0  0  0  0  0
    0.2926   -2.5270    0.5174 C   0  0  0  0  0  0  0  0  0  0  0  0
    1.4813   -1.9602   -0.2216 C   0  0  0  0  0  0  0  0  0  0  0  0
    2.4020   -2.7164   -0.5205 O   0  0  0  0  0  0  0  0  0  0  0  0
    1.4326   -0.6121   -0.5053 N   0  0  0  0  0  0  0  0  0  0  0  0
    2.3794    0.1808   -1.1777 C   0  0  0  0  0  0  0  0  0  0  0  0
    3.6028   -0.2916   -1.6508 C   0  0  0  0  0  0  0  0  0  0  0  0
    4.4874    0.5669   -2.3101 C   0  0  0  0  0  0  0  0  0  0  0  0
    4.1562    1.9081   -2.5003 C   0  0  0  0  0  0  0  0  0  0  0  0
    2.9357    2.4063   -2.0269 C   0  0  0  0  0  0  0  0  0  0  0  0
    2.5499    3.8465   -2.2421 C   0  0  0  0  0  0  0  0  0  0  0  0
    1.8155    4.3646   -1.2174 F   0  0  0  0  0  0  0  0  0  0  0  0
    1.7999    4.0236   -3.3651 F   0  0  0  0  0  0  0  0  0  0  0  0
    3.6237    4.6756   -2.3788 F   0  0  0  0  0  0  0  0  0  0  0  0
    2.0538    1.5286   -1.3744 C   0  0  0  0  0  0  0  0  0  0  0  0
   -1.9814   -0.1460   -0.4853 C   0  0  0  0  0  0  0  0  0  0  0  0
   -2.4553    1.3339   -0.4909 C   0  0  0  0  0  0  0  0  0  0  0  0
   -2.0281    3.8876   -1.2301 H   0  0  0  0  0  0  0  0  0  0  0  0
   -0.9859    4.3192    0.1190 H   0  0  0  0  0  0  0  0  0  0  0  0
   -2.6876    3.8996    0.4195 H   0  0  0  0  0  0  0  0  0  0  0  0
   -1.5463    2.5650    2.0764 H   0  0  0  0  0  0  0  0  0  0  0  0
    0.0633    2.2339    1.4426 H   0  0  0  0  0  0  0  0  0  0  0  0
   -2.1525    0.3302    2.2045 H   0  0  0  0  0  0  0  0  0  0  0  0
   -0.4107    0.2364    2.5398 H   0  0  0  0  0  0  0  0  0  0  0  0
   -2.7717   -1.9016    1.8984 H   0  0  0  0  0  0  0  0  0  0  0  0
   -0.5722   -5.5931    1.7712 H   0  0  0  0  0  0  0  0  0  0  0  0
    1.2387   -4.4795    0.5569 H   0  0  0  0  0  0  0  0  0  0  0  0
    0.5806   -0.1449   -0.1919 H   0  0  0  0  0  0  0  0  0  0  0  0
    3.8998   -1.3276   -1.5208 H   0  0  0  0  0  0  0  0  0  0  0  0
    5.4369    0.1818   -2.6745 H   0  0  0  0  0  0  0  0  0  0  0  0
    4.8555    2.5619   -3.0184 H   0  0  0  0  0  0  0  0  0  0  0  0
    1.0988    1.9119   -1.0203 H   0  0  0  0  0  0  0  0  0  0  0  0
   -2.8646   -0.7899   -0.3921 H   0  0  0  0  0  0  0  0  0  0  0  0
   -1.5054   -0.3721   -1.4475 H   0  0  0  0  0  0  0  0  0  0  0  0
   -2.7779    1.5814   -1.5094 H   0  0  0  0  0  0  0  0  0  0  0  0
   -3.3407    1.4287    0.1526 H   0  0  0  0  0  0  0  0  0  0  0  0
  1  2  1  0
  2  3  1  0
  3  4  1  0
  4  5  1  0
  5  6  1  0
  6  7  2  0
  7  8  1  0
  8  9  1  0
  9 10  1  0
  9 11  1  0
  9 12  1  0
  8 13  2  0
 13 14  1  0
 14 15  2  0
 15 16  1  0
 16 17  2  0
 16 18  1  0
 18 19  1  0
 19 20  2  0
 20 21  1  0
 21 22  2  0
 22 23  1  0
 23 24  1  0
 24 25  1  0
 24 26  1  0
 24 27  1  0
 23 28  2  0
  5 29  1  0
 29 30  1  0
 30  2  1  0
 15  6  1  0
 28 19  1  0
  1 31  1  0
  1 32  1  0
  1 33  1  0
  3 34  1  0
  3 35  1  0
  4 36  1  0
  4 37  1  0
  7 38  1  0
 13 39  1  0
 14 40  1  0
 18 41  1  0
 20 42  1  0
 21 43  1  0
 22 44  1  0
 28 45  1  0
 29 46  1  0
 29 47  1  0
 30 48  1  0
 30 49  1  0
M  END
$$$$
