
     RDKit          3D

 64 66  0  0  0  0  0  0  0  0999 V2000
   -6.6091    0.8218   -1.2251 C   0  0  0  0  0  0  0  0  0  0  0  0
   -5.7323    0.0241   -0.2377 C   0  0  0  0  0  0  0  0  0  0  0  0
   -6.4716   -0.0379    1.1147 C   0  0  0  0  0  0  0  0  0  0  0  0
   -5.5870   -1.4106   -0.7794 C   0  0  0  0  0  0  0  0  0  0  0  0
   -4.3664    0.7487   -0.0515 C   0  0  0  0  0  0  0  0  0  0  0  0
   -3.5155    0.9232   -1.3147 C   0  0  0  0  0  0  0  0  0  0  0  0
   -2.1430    1.2706   -0.7586 C   0  0  0  0  0  0  0  0  0  0  0  0
   -1.9819    0.2904    0.4015 C   0  0  0  0  0  0  0  0  0  0  0  0
   -0.9730    0.7420    1.4563 C   0  0  0  0  0  0  0  0  0  0  0  0
    0.3818    0.8226    0.9490 N   0  0  0  0  0  0  0  0  0  0  0  0
    1.1745   -0.2916    0.7946 C   0  0  0  0  0  0  0  0  0  0  0  0
    0.7706   -1.4354    1.0174 O   0  0  0  0  0  0  0  0  0  0  0  0
    2.6302   -0.0239    0.3549 C   0  0  0  0  0  0  0  0  0  0  0  0
    2.7163    0.5085   -1.0859 C   0  0  0  0  0  0  0  0  0  0  0  0
    2.4764    1.9967   -1.2053 C   0  0  0  0  0  0  0  0  0  0  0  0
    1.3970    2.4877   -1.9508 C   0  0  0  0  0  0  0  0  0  0  0  0
    1.1647    3.8609   -2.0407 C   0  0  0  0  0  0  0  0  0  0  0  0
    2.0164    4.7565   -1.3975 C   0  0  0  0  0  0  0  0  0  0  0  0
    3.1067    4.2805   -0.6723 C   0  0  0  0  0  0  0  0  0  0  0  0
    3.3400    2.9080   -0.5809 C   0  0  0  0  0  0  0  0  0  0  0  0
    3.3390   -1.3011    0.4856 N   0  0  0  0  0  0  0  0  0  0  0  0
    4.7050   -1.3511    0.6261 C   0  0  0  0  0  0  0  0  0  0  0  0
    5.4158   -0.3538    0.5723 O   0  0  0  0  0  0  0  0  0  0  0  0
    5.3063   -2.6892    0.8829 C   0  0  0  0  0  0  0  0  0  0  0  0
    4.6640   -3.8841    0.5178 C   0  0  0  0  0  0  0  0  0  0  0  0
    5.2738   -5.1157    0.7779 C   0  0  0  0  0  0  0  0  0  0  0  0
    6.5212   -5.1496    1.3930 C   0  0  0  0  0  0  0  0  0  0  0  0
    7.0992   -6.3327    1.6398 F   0  0  0  0  0  0  0  0  0  0  0  0
    7.1647   -3.9685    1.7430 C   0  0  0  0  0  0  0  0  0  0  0  0
    8.3684   -4.0070    2.3306 F   0  0  0  0  0  0  0  0  0  0  0  0
    6.5691   -2.7377    1.4891 C   0  0  0  0  0  0  0  0  0  0  0  0
   -3.3997    0.1248    0.9769 C   0  0  0  0  0  0  0  0  0  0  0  0
   -6.1686    0.8448   -2.2276 H   0  0  0  0  0  0  0  0  0  0  0  0
   -6.7401    1.8572   -0.8910 H   0  0  0  0  0  0  0  0  0  0  0  0
   -7.6062    0.3760   -1.3183 H   0  0  0  0  0  0  0  0  0  0  0  0
   -5.9308   -0.6501    1.8440 H   0  0  0  0  0  0  0  0  0  0  0  0
   -7.4703   -0.4749    1.0002 H   0  0  0  0  0  0  0  0  0  0  0  0
   -6.5963    0.9630    1.5429 H   0  0  0  0  0  0  0  0  0  0  0  0
   -5.1329   -1.4270   -1.7750 H   0  0  0  0  0  0  0  0  0  0  0  0
   -4.9805   -2.0403   -0.1220 H   0  0  0  0  0  0  0  0  0  0  0  0
   -6.5679   -1.8928   -0.8694 H   0  0  0  0  0  0  0  0  0  0  0  0
   -4.5881    1.7637    0.3149 H   0  0  0  0  0  0  0  0  0  0  0  0
   -3.8946    1.7158   -1.9668 H   0  0  0  0  0  0  0  0  0  0  0  0
   -3.4519   -0.0007   -1.8980 H   0  0  0  0  0  0  0  0  0  0  0  0
   -2.1249    2.3097   -0.4089 H   0  0  0  0  0  0  0  0  0  0  0  0
   -1.3620    1.1477   -1.5130 H   0  0  0  0  0  0  0  0  0  0  0  0
   -1.6688   -0.6783   -0.0117 H   0  0  0  0  0  0  0  0  0  0  0  0
   -0.9796    0.0427    2.3006 H   0  0  0  0  0  0  0  0  0  0  0  0
   -1.2303    1.7341    1.8437 H   0  0  0  0  0  0  0  0  0  0  0  0
    0.7612    1.7398    0.7387 H   0  0  0  0  0  0  0  0  0  0  0  0
    3.0758    0.6684    1.0791 H   0  0  0  0  0  0  0  0  0  0  0  0
    3.7080    0.3095   -1.5133 H   0  0  0  0  0  0  0  0  0  0  0  0
    2.0074   -0.0378   -1.7224 H   0  0  0  0  0  0  0  0  0  0  0  0
    0.7294    1.8045   -2.4710 H   0  0  0  0  0  0  0  0  0  0  0  0
    0.3238    4.2326   -2.6208 H   0  0  0  0  0  0  0  0  0  0  0  0
    1.8396    5.8263   -1.4734 H   0  0  0  0  0  0  0  0  0  0  0  0
    3.7828    4.9787   -0.1852 H   0  0  0  0  0  0  0  0  0  0  0  0
    4.2087    2.5532   -0.0267 H   0  0  0  0  0  0  0  0  0  0  0  0
    2.7576   -2.0922    0.7486 H   0  0  0  0  0  0  0  0  0  0  0  0
    3.7024   -3.8773    0.0111 H   0  0  0  0  0  0  0  0  0  0  0  0
    4.7877   -6.0461    0.4996 H   0  0  0  0  0  0  0  0  0  0  0  0
    7.0915   -1.8261    1.7672 H   0  0  0  0  0  0  0  0  0  0  0  0
   -3.5109    0.6351    1.9414 H   0  0  0  0  0  0  0  0  0  0  0  0
   -3.5928   -0.9364    1.1594 H   0  0  0  0  0  0  0  0  0  0  0  0
  1  2  1  0
  2  3  1  0
  2  4  1  0
  2  5  1  0
  5  6  1  0
  6  7  1  0
  7  8  1  0
  8  9  1  0
  9 10  1  0
 10 11  1  0
 11 12  2  0
 11 13  1  0
 13 14  1  0
 14 15  1  0
 15 16  2  0
 16 17  1  0
 17 18  2  0
 18 19  1  0
 19 20  2  0
 13 21  1  0
 21 22  1  0
 22 23  2  0
 22 24  1  0
 24 25  2  0
 25 26  1  0
 26 27  2  0
 27 28  1  0
 27 29  1  0
 29 30  1  0
 29 31  2  0
  8 32  1  0
 32  5  1  0
 20 15  1  0
 31 24  1  0
  1 33  1  0
  1 34  1  0
  1 35  1  0
  3 36  1  0
  3 37  1  0
  3 38  1  0
  4 39  1  0
  4 40  1  0
  4 41  1  0
  5 42  1  0
  6 43  1  0
  6 44  1  0
  7 45  1  0
  7 46  1  0
  8 47  1  0
  9 48  1  0
  9 49  1  0
 10 50  1  0
 13 51  1  0
 14 52  1  0
 14 53  1  0
 16 54  1  0
 17 55  1  0
 18 56  1  0
 19 57  1  0
 20 58  1  0
 21 59  1  0
 25 60  1  0
 26 61  1  0
 31 62  1  0
 32 63  1  0
 32 64  1  0
M  END
$$$$
