
     RDKit          3D

 54 56  0  0  0  0  0  0  0  0999 V2000
    5.9512    3.7517   -0.0676 C   0  0  0  0  0  0  0  0  0  0  0  0
    6.1133    2.2684    0.1412 C   0  0  0  0  0  0  0  0  0  0  0  0
    7.1515    1.7855    0.5805 O   0  0  0  0  0  0  0  0  0  0  0  0
    5.0060    1.5258   -0.1878 N   0  0  0  0  0  0  0  0  0  0  0  0
    4.9778    0.0770   -0.0674 C   0  0  0  0  0  0  0  0  0  0  0  0
    5.7455   -0.5806   -1.2183 C   0  0  0  0  0  0  0  0  0  0  0  0
    3.5326   -0.3771    0.0658 C   0  0  0  0  0  0  0  0  0  0  0  0
    2.9237   -0.3273    1.3307 C   0  0  0  0  0  0  0  0  0  0  0  0
    1.5869   -0.6971    1.4966 C   0  0  0  0  0  0  0  0  0  0  0  0
    0.8344   -1.1387    0.4082 C   0  0  0  0  0  0  0  0  0  0  0  0
   -0.4645   -1.4548    0.6901 O   0  0  0  0  0  0  0  0  0  0  0  0
   -1.0980   -2.4510   -0.1291 C   0  0  0  0  0  0  0  0  0  0  0  0
   -1.8607   -3.3986    0.8087 C   0  0  0  0  0  0  0  0  0  0  0  0
   -3.1080   -2.7396    1.3944 C   0  0  0  0  0  0  0  0  0  0  0  0
   -4.0227   -2.2278    0.2832 C   0  0  0  0  0  0  0  0  0  0  0  0
   -3.2918   -1.2816   -0.5702 N   0  0  0  0  0  0  0  0  0  0  0  0
   -3.4877    0.0812   -0.3754 C   0  0  0  0  0  0  0  0  0  0  0  0
   -2.4402    1.0099   -0.3293 C   0  0  0  0  0  0  0  0  0  0  0  0
   -2.6671    2.3786   -0.1433 C   0  0  0  0  0  0  0  0  0  0  0  0
   -3.9635    2.8611   -0.0132 C   0  0  0  0  0  0  0  0  0  0  0  0
   -5.0426    1.9767   -0.0797 C   0  0  0  0  0  0  0  0  0  0  0  0
   -6.4545    2.4801    0.0622 C   0  0  0  0  0  0  0  0  0  0  0  0
   -7.3788    1.6770   -0.5357 F   0  0  0  0  0  0  0  0  0  0  0  0
   -6.6366    3.7167   -0.4820 F   0  0  0  0  0  0  0  0  0  0  0  0
   -6.8405    2.5860    1.3647 F   0  0  0  0  0  0  0  0  0  0  0  0
   -4.7878    0.6030   -0.2547 C   0  0  0  0  0  0  0  0  0  0  0  0
   -2.0502   -1.8122   -1.1652 C   0  0  0  0  0  0  0  0  0  0  0  0
    1.4157   -1.1654   -0.8584 C   0  0  0  0  0  0  0  0  0  0  0  0
    2.7527   -0.7839   -1.0285 C   0  0  0  0  0  0  0  0  0  0  0  0
    5.0023    3.9930   -0.5562 H   0  0  0  0  0  0  0  0  0  0  0  0
    6.7691    4.1163   -0.6983 H   0  0  0  0  0  0  0  0  0  0  0  0
    5.9809    4.2549    0.9039 H   0  0  0  0  0  0  0  0  0  0  0  0
    4.2024    1.9776   -0.6104 H   0  0  0  0  0  0  0  0  0  0  0  0
    5.5066   -0.1938    0.8567 H   0  0  0  0  0  0  0  0  0  0  0  0
    5.6694   -1.6724   -1.1709 H   0  0  0  0  0  0  0  0  0  0  0  0
    6.8091   -0.3178   -1.1764 H   0  0  0  0  0  0  0  0  0  0  0  0
    5.3766   -0.2501   -2.1953 H   0  0  0  0  0  0  0  0  0  0  0  0
    3.4886    0.0103    2.1988 H   0  0  0  0  0  0  0  0  0  0  0  0
    1.1300   -0.6421    2.4843 H   0  0  0  0  0  0  0  0  0  0  0  0
   -0.3472   -3.0601   -0.6489 H   0  0  0  0  0  0  0  0  0  0  0  0
   -1.2091   -3.7182    1.6308 H   0  0  0  0  0  0  0  0  0  0  0  0
   -2.1572   -4.2979    0.2540 H   0  0  0  0  0  0  0  0  0  0  0  0
   -3.6495   -3.4665    2.0115 H   0  0  0  0  0  0  0  0  0  0  0  0
   -2.8172   -1.9108    2.0519 H   0  0  0  0  0  0  0  0  0  0  0  0
   -4.3603   -3.0696   -0.3354 H   0  0  0  0  0  0  0  0  0  0  0  0
   -4.9231   -1.8022    0.7362 H   0  0  0  0  0  0  0  0  0  0  0  0
   -1.4070    0.6886   -0.4070 H   0  0  0  0  0  0  0  0  0  0  0  0
   -1.8228    3.0608   -0.0964 H   0  0  0  0  0  0  0  0  0  0  0  0
   -4.1299    3.9265    0.1322 H   0  0  0  0  0  0  0  0  0  0  0  0
   -5.6400   -0.0690   -0.3367 H   0  0  0  0  0  0  0  0  0  0  0  0
   -1.5358   -1.0514   -1.7630 H   0  0  0  0  0  0  0  0  0  0  0  0
   -2.3473   -2.5938   -1.8782 H   0  0  0  0  0  0  0  0  0  0  0  0
    0.8504   -1.4553   -1.7392 H   0  0  0  0  0  0  0  0  0  0  0  0
    3.1651   -0.8003   -2.0341 H   0  0  0  0  0  0  0  0  0  0  0  0
  1  2  1  0
  2  3  2  0
  2  4  1  0
  4  5  1  0
  5  6  1  0
  5  7  1  0
  7  8  2  0
  8  9  1  0
  9 10  2  0
 10 11  1  0
 11 12  1  0
 12 13  1  0
 13 14  1  0
 14 15  1  0
 15 16  1  0
 16 17  1  0
 17 18  2  0
 18 19  1  0
 19 20  2  0
 20 21  1  0
 21 22  1  0
 22 23  1  0
 22 24  1  0
 22 25  1  0
 21 26  2  0
 16 27  1  0
 10 28  1  0
 28 29  2  0
 29  7  1  0
 27 12  1  0
 26 17  1  0
  1 30  1  0
  1 31  1  0
  1 32  1  0
  4 33  1  0
  5 34  1  0
  6 35  1  0
  6 36  1  0
  6 37  1  0
  8 38  1  0
  9 39  1  0
 12 40  1  0
 13 41  1  0
 13 42  1  0
 14 43  1  0
 14 44  1  0
 15 45  1  0
 15 46  1  0
 18 47  1  0
 19 48  1  0
 20 49  1  0
 26 50  1  0
 27 51  1  0
 27 52  1  0
 28 53  1  0
 29 54  1  0
M  END
$$$$
