
     RDKit          3D

 58 62  0  0  0  0  0  0  0  0999 V2000
   -6.2151    0.8664   -0.9338 O   0  0  0  0  0  0  0  0  0  0  0  0
   -5.5475   -0.1590   -1.1128 C   0  0  0  0  0  0  0  0  0  0  0  0
   -6.0521   -1.5056   -0.6549 C   0  0  0  0  0  0  0  0  0  0  0  0
   -5.6741   -1.7462    0.7956 C   0  0  0  0  0  0  0  0  0  0  0  0
   -4.1644   -1.8313    1.0109 C   0  0  0  0  0  0  0  0  0  0  0  0
   -3.4193   -0.5035    0.7815 C   0  0  0  0  0  0  0  0  0  0  0  0
   -3.0159   -0.1323   -0.6864 C   0  0  0  0  0  0  0  0  0  0  0  0
   -4.1686   -0.1148   -1.7250 C   0  0  0  0  0  0  0  0  0  0  0  0
   -2.0135   -1.2147   -1.1471 C   0  0  0  0  0  0  0  0  0  0  0  0
   -2.3567   -2.2729   -1.6746 O   0  0  0  0  0  0  0  0  0  0  0  0
   -0.7072   -1.0670   -0.7943 N   0  0  0  0  0  0  0  0  0  0  0  0
   -0.0414    0.1999   -0.8735 C   0  0  0  0  0  0  0  0  0  0  0  0
    0.9963    0.1369    0.1079 N   0  0  0  0  0  0  0  0  0  0  0  0
    2.2972    0.5414   -0.1151 C   0  0  0  0  0  0  0  0  0  0  0  0
    2.6475    1.0975   -1.1500 O   0  0  0  0  0  0  0  0  0  0  0  0
    3.2199    0.2752    1.1090 C   0  0  0  0  0  0  0  0  0  0  0  0
    2.8531   -1.0385    1.7335 N   0  0  0  0  0  0  0  0  0  0  0  0
    3.4506   -2.1378    0.9530 C   0  0  0  0  0  0  0  0  0  0  0  0
    4.9819   -2.1101    1.0096 C   0  0  0  0  0  0  0  0  0  0  0  0
    5.5399   -0.7332    0.7452 C   0  0  0  0  0  0  0  0  0  0  0  0
    6.9114   -0.5775    0.4914 C   0  0  0  0  0  0  0  0  0  0  0  0
    7.4544    0.6943    0.2883 C   0  0  0  0  0  0  0  0  0  0  0  0
    6.6322    1.8192    0.3306 C   0  0  0  0  0  0  0  0  0  0  0  0
    5.2663    1.6757    0.5905 C   0  0  0  0  0  0  0  0  0  0  0  0
    4.7045    0.4027    0.8085 C   0  0  0  0  0  0  0  0  0  0  0  0
   -0.9507    1.3925   -0.6671 C   0  0  0  0  0  0  0  0  0  0  0  0
   -0.3891    2.6841   -0.6062 C   0  0  0  0  0  0  0  0  0  0  0  0
   -1.1851    3.8155   -0.4312 C   0  0  0  0  0  0  0  0  0  0  0  0
   -2.5611    3.6788   -0.3241 C   0  0  0  0  0  0  0  0  0  0  0  0
   -3.1389    2.4141   -0.4092 C   0  0  0  0  0  0  0  0  0  0  0  0
   -2.3514    1.2570   -0.6015 C   0  0  0  0  0  0  0  0  0  0  0  0
   -7.1434   -1.5092   -0.7726 H   0  0  0  0  0  0  0  0  0  0  0  0
   -5.6576   -2.2949   -1.3085 H   0  0  0  0  0  0  0  0  0  0  0  0
   -6.1270   -2.6934    1.1246 H   0  0  0  0  0  0  0  0  0  0  0  0
   -6.0911   -0.9538    1.4325 H   0  0  0  0  0  0  0  0  0  0  0  0
   -3.7410   -2.6418    0.4097 H   0  0  0  0  0  0  0  0  0  0  0  0
   -4.0048   -2.1214    2.0566 H   0  0  0  0  0  0  0  0  0  0  0  0
   -2.4998   -0.5508    1.3852 H   0  0  0  0  0  0  0  0  0  0  0  0
   -4.0088    0.3077    1.2318 H   0  0  0  0  0  0  0  0  0  0  0  0
   -4.1237   -0.9564   -2.4289 H   0  0  0  0  0  0  0  0  0  0  0  0
   -4.1226    0.7705   -2.3769 H   0  0  0  0  0  0  0  0  0  0  0  0
   -0.1438   -1.8397   -1.1176 H   0  0  0  0  0  0  0  0  0  0  0  0
    0.3887    0.2680   -1.8818 H   0  0  0  0  0  0  0  0  0  0  0  0
    0.8279   -0.3986    0.9523 H   0  0  0  0  0  0  0  0  0  0  0  0
    2.9572    1.0405    1.8551 H   0  0  0  0  0  0  0  0  0  0  0  0
    3.2750   -1.0442    2.6635 H   0  0  0  0  0  0  0  0  0  0  0  0
    3.0954   -3.0917    1.3605 H   0  0  0  0  0  0  0  0  0  0  0  0
    3.1076   -2.0979   -0.0888 H   0  0  0  0  0  0  0  0  0  0  0  0
    5.3132   -2.4315    2.0049 H   0  0  0  0  0  0  0  0  0  0  0  0
    5.3823   -2.8222    0.2752 H   0  0  0  0  0  0  0  0  0  0  0  0
    7.5625   -1.4455    0.4544 H   0  0  0  0  0  0  0  0  0  0  0  0
    8.5180    0.8038    0.0895 H   0  0  0  0  0  0  0  0  0  0  0  0
    7.0518    2.8101    0.1589 H   0  0  0  0  0  0  0  0  0  0  0  0
    4.6363    2.5666    0.6080 H   0  0  0  0  0  0  0  0  0  0  0  0
    0.6867    2.8167   -0.7067 H   0  0  0  0  0  0  0  0  0  0  0  0
   -0.7292    4.8000   -0.3833 H   0  0  0  0  0  0  0  0  0  0  0  0
   -3.1907    4.5551   -0.1811 H   0  0  0  0  0  0  0  0  0  0  0  0
   -4.2221    2.3472   -0.3223 H   0  0  0  0  0  0  0  0  0  0  0  0
  1  2  2  0
  2  3  1  0
  3  4  1  0
  4  5  1  0
  5  6  1  0
  6  7  1  0
  7  8  1  0
  7  9  1  0
  9 10  2  0
  9 11  1  0
 11 12  1  0
 12 13  1  0
 13 14  1  0
 14 15  2  0
 14 16  1  0
 16 17  1  0
 17 18  1  0
 18 19  1  0
 19 20  1  0
 20 21  2  0
 21 22  1  0
 22 23  2  0
 23 24  1  0
 24 25  2  0
 12 26  1  0
 26 27  2  0
 27 28  1  0
 28 29  2  0
 29 30  1  0
 30 31  2  0
  8  2  1  0
 25 16  1  0
 31 26  1  0
 31  7  1  0
 25 20  1  0
  3 32  1  0
  3 33  1  0
  4 34  1  0
  4 35  1  0
  5 36  1  0
  5 37  1  0
  6 38  1  0
  6 39  1  0
  8 40  1  0
  8 41  1  0
 11 42  1  0
 12 43  1  0
 13 44  1  0
 16 45  1  0
 17 46  1  0
 18 47  1  0
 18 48  1  0
 19 49  1  0
 19 50  1  0
 21 51  1  0
 22 52  1  0
 23 53  1  0
 24 54  1  0
 27 55  1  0
 28 56  1  0
 29 57  1  0
 30 58  1  0
M  END
$$$$
