
     RDKit          3D

 50 52  0  0  0  0  0  0  0  0999 V2000
   -7.5734    0.9572    0.4814 C   0  0  0  0  0  0  0  0  0  0  0  0
   -6.7161   -0.1449    0.0553 N   0  0  0  0  0  0  0  0  0  0  0  0
   -5.8970    0.2476   -1.1103 C   0  0  0  0  0  0  0  0  0  0  0  0
   -4.6059   -0.5750   -1.2616 C   0  0  0  0  0  0  0  0  0  0  0  0
   -3.7468   -0.4474   -0.0802 N   0  0  0  0  0  0  0  0  0  0  0  0
   -2.3704   -0.5653   -0.2326 C   0  0  0  0  0  0  0  0  0  0  0  0
   -1.8656   -0.8365   -1.3229 O   0  0  0  0  0  0  0  0  0  0  0  0
   -1.5267   -0.3556    1.0222 C   0  0  0  0  0  0  0  0  0  0  0  0
   -0.0501   -0.1707    0.7514 C   0  0  0  0  0  0  0  0  0  0  0  0
    0.4862    1.1071    0.5778 C   0  0  0  0  0  0  0  0  0  0  0  0
    1.8464    1.2698    0.3094 C   0  0  0  0  0  0  0  0  0  0  0  0
    2.7074    0.1631    0.2000 C   0  0  0  0  0  0  0  0  0  0  0  0
    4.1260    0.4008   -0.0934 C   0  0  0  0  0  0  0  0  0  0  0  0
    5.0369    0.6605    0.9400 C   0  0  0  0  0  0  0  0  0  0  0  0
    6.3872    0.8913    0.6611 C   0  0  0  0  0  0  0  0  0  0  0  0
    6.8550    0.8772   -0.6609 C   0  0  0  0  0  0  0  0  0  0  0  0
    8.3170    1.1028   -0.9581 C   0  0  0  0  0  0  0  0  0  0  0  0
    8.9064    1.9777   -0.0949 F   0  0  0  0  0  0  0  0  0  0  0  0
    8.5403    1.6076   -2.2041 F   0  0  0  0  0  0  0  0  0  0  0  0
    9.0463   -0.0442   -0.8828 F   0  0  0  0  0  0  0  0  0  0  0  0
    5.9463    0.6134   -1.6954 C   0  0  0  0  0  0  0  0  0  0  0  0
    4.5964    0.3834   -1.4139 C   0  0  0  0  0  0  0  0  0  0  0  0
    2.1739   -1.1327    0.3672 C   0  0  0  0  0  0  0  0  0  0  0  0
    3.0435   -2.3648    0.2554 C   0  0  0  0  0  0  0  0  0  0  0  0
    3.5935   -2.5254   -0.9802 F   0  0  0  0  0  0  0  0  0  0  0  0
    4.0795   -2.3693    1.1411 F   0  0  0  0  0  0  0  0  0  0  0  0
    2.3645   -3.5250    0.5004 F   0  0  0  0  0  0  0  0  0  0  0  0
    0.7977   -1.2812    0.6378 C   0  0  0  0  0  0  0  0  0  0  0  0
   -4.4370   -0.2149    1.1930 C   0  0  0  0  0  0  0  0  0  0  0  0
   -5.9053   -0.6817    1.1635 C   0  0  0  0  0  0  0  0  0  0  0  0
   -6.9947    1.8038    0.8679 H   0  0  0  0  0  0  0  0  0  0  0  0
   -8.2647    0.6259    1.2641 H   0  0  0  0  0  0  0  0  0  0  0  0
   -8.1905    1.3105   -0.3523 H   0  0  0  0  0  0  0  0  0  0  0  0
   -6.5023    0.1426   -2.0178 H   0  0  0  0  0  0  0  0  0  0  0  0
   -5.6078    1.3048   -1.0323 H   0  0  0  0  0  0  0  0  0  0  0  0
   -4.0639   -0.2492   -2.1561 H   0  0  0  0  0  0  0  0  0  0  0  0
   -4.8381   -1.6397   -1.3845 H   0  0  0  0  0  0  0  0  0  0  0  0
   -1.6640   -1.2230    1.6790 H   0  0  0  0  0  0  0  0  0  0  0  0
   -1.8914    0.5251    1.5639 H   0  0  0  0  0  0  0  0  0  0  0  0
   -0.1495    1.9876    0.6395 H   0  0  0  0  0  0  0  0  0  0  0  0
    2.2385    2.2769    0.1732 H   0  0  0  0  0  0  0  0  0  0  0  0
    4.6984    0.6762    1.9746 H   0  0  0  0  0  0  0  0  0  0  0  0
    7.0752    1.0817    1.4838 H   0  0  0  0  0  0  0  0  0  0  0  0
    6.2850    0.5843   -2.7302 H   0  0  0  0  0  0  0  0  0  0  0  0
    3.9098    0.1817   -2.2351 H   0  0  0  0  0  0  0  0  0  0  0  0
    0.3782   -2.2819    0.7471 H   0  0  0  0  0  0  0  0  0  0  0  0
   -3.9081   -0.7331    1.9984 H   0  0  0  0  0  0  0  0  0  0  0  0
   -4.3864    0.8614    1.3955 H   0  0  0  0  0  0  0  0  0  0  0  0
   -6.3739   -0.4861    2.1360 H   0  0  0  0  0  0  0  0  0  0  0  0
   -5.9059   -1.7742    1.0525 H   0  0  0  0  0  0  0  0  0  0  0  0
  1  2  1  0
  2  3  1  0
  3  4  1  0
  4  5  1  0
  5  6  1  0
  6  7  2  0
  6  8  1  0
  8  9  1  0
  9 10  2  0
 10 11  1  0
 11 12  2  0
 12 13  1  0
 13 14  2  0
 14 15  1  0
 15 16  2  0
 16 17  1  0
 17 18  1  0
 17 19  1  0
 17 20  1  0
 16 21  1  0
 21 22  2  0
 12 23  1  0
 23 24  1  0
 24 25  1  0
 24 26  1  0
 24 27  1  0
 23 28  2  0
  5 29  1  0
 29 30  1  0
 30  2  1  0
 28  9  1  0
 22 13  1  0
  1 31  1  0
  1 32  1  0
  1 33  1  0
  3 34  1  0
  3 35  1  0
  4 36  1  0
  4 37  1  0
  8 38  1  0
  8 39  1  0
 10 40  1  0
 11 41  1  0
 14 42  1  0
 15 43  1  0
 21 44  1  0
 22 45  1  0
 28 46  1  0
 29 47  1  0
 29 48  1  0
 30 49  1  0
 30 50  1  0
M  END
$$$$
