
     RDKit          3D

 41 43  0  0  0  0  0  0  0  0999 V2000
   -0.2686    1.7203   -1.6410 O   0  0  0  0  0  0  0  0  0  0  0  0
    0.2499    1.1030   -0.7064 C   0  0  0  0  0  0  0  0  0  0  0  0
   -0.4916    0.3803    0.1849 N   0  0  0  0  0  0  0  0  0  0  0  0
   -1.8620    0.0545    0.0998 C   0  0  0  0  0  0  0  0  0  0  0  0
   -2.6093    0.1400   -1.0761 C   0  0  0  0  0  0  0  0  0  0  0  0
   -3.9687   -0.2190   -1.0982 C   0  0  0  0  0  0  0  0  0  0  0  0
   -4.7451   -0.1159   -2.3894 C   0  0  0  0  0  0  0  0  0  0  0  0
   -6.0539   -0.4760   -2.2603 F   0  0  0  0  0  0  0  0  0  0  0  0
   -4.2363   -0.9159   -3.3679 F   0  0  0  0  0  0  0  0  0  0  0  0
   -4.7559    1.1464   -2.8993 F   0  0  0  0  0  0  0  0  0  0  0  0
   -4.5731   -0.6771    0.0827 C   0  0  0  0  0  0  0  0  0  0  0  0
   -3.8380   -0.7761    1.2734 C   0  0  0  0  0  0  0  0  0  0  0  0
   -4.4764   -1.2969    2.5380 C   0  0  0  0  0  0  0  0  0  0  0  0
   -3.9943   -0.7005    3.6631 F   0  0  0  0  0  0  0  0  0  0  0  0
   -5.8259   -1.1164    2.5703 F   0  0  0  0  0  0  0  0  0  0  0  0
   -4.2728   -2.6326    2.7045 F   0  0  0  0  0  0  0  0  0  0  0  0
   -2.4799   -0.4181    1.2638 C   0  0  0  0  0  0  0  0  0  0  0  0
    1.6566    1.1009   -0.5485 N   0  0  0  0  0  0  0  0  0  0  0  0
    2.3313    1.8965   -1.5921 C   0  0  0  0  0  0  0  0  0  0  0  0
    3.7761    2.2375   -1.2767 C   0  0  0  0  0  0  0  0  0  0  0  0
    4.5407    0.9629   -0.9824 C   0  0  0  0  0  0  0  0  0  0  0  0
    3.7946    0.1313    0.0223 C   0  0  0  0  0  0  0  0  0  0  0  0
    4.5662   -0.7597    0.7318 N   0  0  0  0  0  0  0  0  0  0  0  0
    4.0681   -1.6549    1.6302 C   0  0  0  0  0  0  0  0  0  0  0  0
    4.7937   -2.3944    2.2836 O   0  0  0  0  0  0  0  0  0  0  0  0
    2.7180   -1.6382    1.7802 N   0  0  0  0  0  0  0  0  0  0  0  0
    1.9776   -0.5502    1.4213 C   0  0  0  0  0  0  0  0  0  0  0  0
    1.0053   -0.2161    2.0965 O   0  0  0  0  0  0  0  0  0  0  0  0
    2.4630    0.2496    0.2379 C   0  0  0  0  0  0  0  0  0  0  0  0
   -0.0934    0.3037    1.1165 H   0  0  0  0  0  0  0  0  0  0  0  0
   -2.1516    0.4755   -2.0048 H   0  0  0  0  0  0  0  0  0  0  0  0
   -5.6266   -0.9624    0.0755 H   0  0  0  0  0  0  0  0  0  0  0  0
   -1.9042   -0.5060    2.1858 H   0  0  0  0  0  0  0  0  0  0  0  0
    1.7870    2.8372   -1.7418 H   0  0  0  0  0  0  0  0  0  0  0  0
    2.2668    1.3295   -2.5303 H   0  0  0  0  0  0  0  0  0  0  0  0
    3.8165    2.9060   -0.4068 H   0  0  0  0  0  0  0  0  0  0  0  0
    4.2347    2.7709   -2.1165 H   0  0  0  0  0  0  0  0  0  0  0  0
    5.5345    1.2307   -0.6043 H   0  0  0  0  0  0  0  0  0  0  0  0
    4.6863    0.3799   -1.9001 H   0  0  0  0  0  0  0  0  0  0  0  0
    5.5702   -0.8017    0.5927 H   0  0  0  0  0  0  0  0  0  0  0  0
    2.3907   -2.1474    2.5878 H   0  0  0  0  0  0  0  0  0  0  0  0
  1  2  2  0
  2  3  1  0
  3  4  1  0
  4  5  2  0
  5  6  1  0
  6  7  1  0
  7  8  1  0
  7  9  1  0
  7 10  1  0
  6 11  2  0
 11 12  1  0
 12 13  1  0
 13 14  1  0
 13 15  1  0
 13 16  1  0
 12 17  2  0
  2 18  1  0
 18 19  1  0
 19 20  1  0
 20 21  1  0
 21 22  1  0
 22 23  1  0
 23 24  1  0
 24 25  2  0
 24 26  1  0
 26 27  1  0
 27 28  2  0
 27 29  1  0
 17  4  1  0
 29 18  1  0
 29 22  2  0
  3 30  1  0
  5 31  1  0
 11 32  1  0
 17 33  1  0
 19 34  1  0
 19 35  1  0
 20 36  1  0
 20 37  1  0
 21 38  1  0
 21 39  1  0
 23 40  1  0
 26 41  1  0
M  END
$$$$
